

        *** GPGPU-Sim Simulator Version 3.2.2  [build 0] ***


GPGPU-Sim PTX: simulation mode 0 (can change with PTX_SIM_MODE_FUNC environment variable:
               1=functional simulation only, 0=detailed performance simulator)
GPGPU-Sim: Configuration options:

-network_mode                           1 # Interconnection network mode
-inter_config_file   config_fermi_islip.icnt # Interconnection network config file
-gpgpu_ptx_use_cuobjdump                    1 # Use cuobjdump to extract ptx and sass from binaries
-gpgpu_experimental_lib_support                    0 # Try to extract code from cuda libraries [Broken because of unknown cudaGetExportTable]
-gpgpu_ptx_convert_to_ptxplus                    0 # Convert SASS (native ISA) to ptxplus and run ptxplus
-gpgpu_ptx_force_max_capability                   20 # Force maximum compute capability
-gpgpu_ptx_inst_debug_to_file                    0 # Dump executed instructions' debug information to file
-gpgpu_ptx_inst_debug_file       inst_debug.txt # Executed instructions' debug output file
-gpgpu_ptx_inst_debug_thread_uid                    1 # Thread UID for executed instructions' debug output
-gpgpu_simd_model                       1 # 1 = post-dominator
-gpgpu_shader_core_pipeline              1536:32 # shader core pipeline config, i.e., {<nthread>:<warpsize>}
-gpgpu_tex_cache:l1  4:128:24,L:R:m:N:L,F:128:4,128:2 # per-shader L1 texture cache  (READ-ONLY) config  {<nsets>:<bsize>:<assoc>,<rep>:<wr>:<alloc>:<wr_alloc>,<mshr>:<N>:<merge>,<mq>:<rf>}
-gpgpu_const_cache:l1 64:64:2,L:R:f:N:L,A:2:32,4 # per-shader L1 constant memory cache  (READ-ONLY) config  {<nsets>:<bsize>:<assoc>,<rep>:<wr>:<alloc>:<wr_alloc>,<mshr>:<N>:<merge>,<mq>} 
-gpgpu_cache:il1     4:128:4,L:R:f:N:L,A:2:32,4 # shader L1 instruction cache config  {<nsets>:<bsize>:<assoc>,<rep>:<wr>:<alloc>:<wr_alloc>,<mshr>:<N>:<merge>,<mq>} 
-gpgpu_cache:dl1     32:128:4,L:L:m:N:H,A:32:8,8 # per-shader L1 data cache config  {<nsets>:<bsize>:<assoc>,<rep>:<wr>:<alloc>:<wr_alloc>,<mshr>:<N>:<merge>,<mq> | none}
-gpgpu_cache:dl1PrefL1                 none # per-shader L1 data cache config  {<nsets>:<bsize>:<assoc>,<rep>:<wr>:<alloc>:<wr_alloc>,<mshr>:<N>:<merge>,<mq> | none}
-gpgpu_cache:dl1PreShared                 none # per-shader L1 data cache config  {<nsets>:<bsize>:<assoc>,<rep>:<wr>:<alloc>:<wr_alloc>,<mshr>:<N>:<merge>,<mq> | none}
-gmem_skip_L1D                          0 # global memory access skip L1D cache (implements -Xptxas -dlcm=cg, default=no skip)
-gpgpu_perfect_mem                      0 # enable perfect memory mode (no cache miss)
-n_regfile_gating_group                    4 # group of lanes that should be read/written together)
-gpgpu_clock_gated_reg_file                    0 # enable clock gated reg file for power calculations
-gpgpu_clock_gated_lanes                    0 # enable clock gated lanes for power calculations
-gpgpu_shader_registers                32768 # Number of registers per shader core. Limits number of concurrent CTAs. (default 8192)
-gpgpu_shader_cta                       8 # Maximum number of concurrent CTAs in shader (default 8)
-gpgpu_num_cta_barriers                   16 # Maximum number of named barriers per CTA (default 16)
-gpgpu_n_clusters                      15 # number of processing clusters
-gpgpu_n_cores_per_cluster                    1 # number of simd cores per cluster
-gpgpu_n_cluster_ejection_buffer_size                    8 # number of packets in ejection buffer
-gpgpu_n_ldst_response_buffer_size                    2 # number of response packets in ld/st unit ejection buffer
-gpgpu_shmem_size                   16384 # Size of shared memory per shader core (default 16kB)
-gpgpu_shmem_size                   49152 # Size of shared memory per shader core (default 16kB)
-gpgpu_shmem_size_PrefL1                16384 # Size of shared memory per shader core (default 16kB)
-gpgpu_shmem_size_PrefShared                16384 # Size of shared memory per shader core (default 16kB)
-gpgpu_shmem_num_banks                   32 # Number of banks in the shared memory in each shader core (default 16)
-gpgpu_shmem_limited_broadcast                    0 # Limit shared memory to do one broadcast per cycle (default on)
-gpgpu_shmem_warp_parts                    1 # Number of portions a warp is divided into for shared memory bank conflict check 
-gpgpu_warpdistro_shader                   -1 # Specify which shader core to collect the warp size distribution from
-gpgpu_warp_issue_shader                    0 # Specify which shader core to collect the warp issue distribution from
-gpgpu_local_mem_map                    1 # Mapping from local memory space address to simulated GPU physical address space (default = enabled)
-gpgpu_num_reg_banks                   16 # Number of register banks (default = 8)
-gpgpu_reg_bank_use_warp_id                    0 # Use warp ID in mapping registers to banks (default = off)
-gpgpu_operand_collector_num_units_sp                    6 # number of collector units (default = 4)
-gpgpu_operand_collector_num_units_sfu                    8 # number of collector units (default = 4)
-gpgpu_operand_collector_num_units_mem                    2 # number of collector units (default = 2)
-gpgpu_operand_collector_num_units_gen                    0 # number of collector units (default = 0)
-gpgpu_operand_collector_num_in_ports_sp                    2 # number of collector unit in ports (default = 1)
-gpgpu_operand_collector_num_in_ports_sfu                    1 # number of collector unit in ports (default = 1)
-gpgpu_operand_collector_num_in_ports_mem                    1 # number of collector unit in ports (default = 1)
-gpgpu_operand_collector_num_in_ports_gen                    0 # number of collector unit in ports (default = 0)
-gpgpu_operand_collector_num_out_ports_sp                    2 # number of collector unit in ports (default = 1)
-gpgpu_operand_collector_num_out_ports_sfu                    1 # number of collector unit in ports (default = 1)
-gpgpu_operand_collector_num_out_ports_mem                    1 # number of collector unit in ports (default = 1)
-gpgpu_operand_collector_num_out_ports_gen                    0 # number of collector unit in ports (default = 0)
-gpgpu_coalesce_arch                   13 # Coalescing arch (default = 13, anything else is off for now)
-gpgpu_num_sched_per_core                    2 # Number of warp schedulers per core
-gpgpu_max_insn_issue_per_warp                    1 # Max number of instructions that can be issued per warp in one cycle by scheduler
-gpgpu_simt_core_sim_order                    1 # Select the simulation order of cores in a cluster (0=Fix, 1=Round-Robin)
-gpgpu_pipeline_widths        2,1,1,2,1,1,2 # Pipeline widths ID_OC_SP,ID_OC_SFU,ID_OC_MEM,OC_EX_SP,OC_EX_SFU,OC_EX_MEM,EX_WB
-gpgpu_num_sp_units                     2 # Number of SP units (default=1)
-gpgpu_num_sfu_units                    1 # Number of SF units (default=1)
-gpgpu_num_mem_units                    1 # Number if ldst units (default=1) WARNING: not hooked up to anything
-gpgpu_scheduler     two_level_active:6:0:1 # Scheduler configuration: < lrr | gto | two_level_active > If two_level_active:<num_active_warps>:<inner_prioritization>:<outer_prioritization>For complete list of prioritization values see shader.h enum scheduler_prioritization_typeDefault: gto
-gpgpu_dram_scheduler                    1 # 0 = fifo, 1 = FR-FCFS (defaul)
-gpgpu_dram_partition_queues              8:8:8:8 # i2$:$2d:d2$:$2i
-l2_ideal                               0 # Use a ideal L2 cache that always hit
-gpgpu_cache:dl2     64:128:8,L:B:m:W:L,A:32:4,4:0,32 # unified banked L2 data cache config  {<nsets>:<bsize>:<assoc>,<rep>:<wr>:<alloc>:<wr_alloc>,<mshr>:<N>:<merge>,<mq>}
-gpgpu_cache:dl2_texture_only                    0 # L2 cache used for texture only
-gpgpu_n_mem                            6 # number of memory modules (e.g. memory controllers) in gpu
-gpgpu_n_sub_partition_per_mchannel                    2 # number of memory subpartition in each memory module
-gpgpu_n_mem_per_ctrlr                    2 # number of memory chips per memory controller
-gpgpu_memlatency_stat                   14 # track and display latency statistics 0x2 enables MC, 0x4 enables queue logs
-gpgpu_frfcfs_dram_sched_queue_size                   16 # 0 = unlimited (default); # entries per chip
-gpgpu_dram_return_queue_size                  116 # 0 = unlimited (default); # entries per chip
-gpgpu_dram_buswidth                    4 # default = 4 bytes (8 bytes per cycle at DDR)
-gpgpu_dram_burst_length                    8 # Burst length of each DRAM request (default = 4 data bus cycle)
-dram_data_command_freq_ratio                    4 # Frequency ratio between DRAM data bus and command bus (default = 2 times, i.e. DDR)
-gpgpu_dram_timing_opt nbk=16:CCD=2:RRD=6:RCD=12:RAS=28:RP=12:RC=40: CL=12:WL=4:CDLR=5:WR=12:nbkgrp=4:CCDL=3:RTPL=2 # DRAM timing parameters = {nbk:tCCD:tRRD:tRCD:tRAS:tRP:tRC:CL:WL:tCDLR:tWR:nbkgrp:tCCDL:tRTPL}
-rop_latency                          120 # ROP queue latency (default 85)
-dram_latency                         100 # DRAM latency (default 30)
-gpgpu_mem_addr_mapping dramid@8;00000000.00000000.00000000.00000000.0000RRRR.RRRRRRRR.BBBCCCCB.CCSSSSSS # mapping memory address to dram model {dramid@<start bit>;<memory address map>}
-gpgpu_mem_addr_test                    0 # run sweep test to check address mapping for aliased address
-gpgpu_mem_address_mask                    1 # 0 = old addressing mask, 1 = new addressing mask, 2 = new add. mask + flipped bank sel and chip sel bits
-gpuwattch_xml_file  gpuwattch_gtx480.xml # GPUWattch XML file
-power_simulation_enabled                    1 # Turn on power simulator (1=On, 0=Off)
-power_per_cycle_dump                    0 # Dump detailed power output each cycle
-power_trace_enabled                    0 # produce a file for the power trace (1=On, 0=Off)
-power_trace_zlevel                     6 # Compression level of the power trace output log (0=no comp, 9=highest)
-steady_power_levels_enabled                    0 # produce a file for the steady power levels (1=On, 0=Off)
-steady_state_definition                  8:4 # allowed deviation:number of samples
-gpgpu_max_cycle                        0 # terminates gpu simulation early (0 = no limit)
-gpgpu_max_insn                         0 # terminates gpu simulation early (0 = no limit)
-gpgpu_max_cta                          0 # terminates gpu simulation early (0 = no limit)
-gpgpu_runtime_stat                   500 # display runtime statistics such as dram utilization {<freq>:<flag>}
-liveness_message_freq                    1 # Minimum number of seconds between simulation liveness messages (0 = always print)
-gpgpu_flush_l1_cache                    0 # Flush L1 cache at the end of each kernel call
-gpgpu_flush_l2_cache                    0 # Flush L2 cache at the end of each kernel call
-gpgpu_deadlock_detect                    1 # Stop the simulation at deadlock (1=on (default), 0=off)
-gpgpu_ptx_instruction_classification                    0 # if enabled will classify ptx instruction types per kernel (Max 255 kernels now)
-gpgpu_ptx_sim_mode                     0 # Select between Performance (default) or Functional simulation (1)
-gpgpu_clock_domains 700.0:700.0:700.0:924.0 # Clock Domain Frequencies in MhZ {<Core Clock>:<ICNT Clock>:<L2 Clock>:<DRAM Clock>}
-gpgpu_max_concurrent_kernel                    8 # maximum kernels that can run concurrently on GPU
-gpgpu_cflog_interval                    0 # Interval between each snapshot in control flow logger
-visualizer_enabled                     0 # Turn on visualizer output (1=On, 0=Off)
-visualizer_outputfile                 NULL # Specifies the output log file for visualizer
-visualizer_zlevel                      6 # Compression level of the visualizer output log (0=no comp, 9=highest)
-trace_enabled                          0 # Turn on traces
-trace_components                    none # comma seperated list of traces to enable. Complete list found in trace_streams.tup. Default none
-trace_sampling_core                    0 # The core which is printed using CORE_DPRINTF. Default 0
-trace_sampling_memory_partition                   -1 # The memory partition which is printed using MEMPART_DPRINTF. Default -1 (i.e. all)
-enable_ptx_file_line_stats                    1 # Turn on PTX source line statistic profiling. (1 = On)
-ptx_line_stats_filename gpgpu_inst_stats.txt # Output file for PTX source line statistics.
-save_embedded_ptx                      0 # saves ptx files embedded in binary as <n>.ptx
-keep                                   0 # keep intermediate files created by GPGPU-Sim when interfacing with external programs
-gpgpu_ptx_save_converted_ptxplus                    0 # Saved converted ptxplus to a file
-ptx_opcode_latency_int         4,13,4,5,145 # Opcode latencies for integers <ADD,MAX,MUL,MAD,DIV>Default 1,1,19,25,145
-ptx_opcode_latency_fp          4,13,4,5,39 # Opcode latencies for single precision floating points <ADD,MAX,MUL,MAD,DIV>Default 1,1,1,1,30
-ptx_opcode_latency_dp         8,19,8,8,330 # Opcode latencies for double precision floating points <ADD,MAX,MUL,MAD,DIV>Default 8,8,8,8,335
-ptx_opcode_initiation_int            1,2,2,1,8 # Opcode initiation intervals for integers <ADD,MAX,MUL,MAD,DIV>Default 1,1,4,4,32
-ptx_opcode_initiation_fp            1,2,1,1,4 # Opcode initiation intervals for single precision floating points <ADD,MAX,MUL,MAD,DIV>Default 1,1,1,1,5
-ptx_opcode_initiation_dp         8,16,8,8,130 # Opcode initiation intervals for double precision floating points <ADD,MAX,MUL,MAD,DIV>Default 8,8,8,8,130
DRAM Timing Options:
nbk                                    16 # number of banks
CCD                                     2 # column to column delay
RRD                                     6 # minimal delay between activation of rows in different banks
RCD                                    12 # row to column delay
RAS                                    28 # time needed to activate row
RP                                     12 # time needed to precharge (deactivate) row
RC                                     40 # row cycle time
CDLR                                    5 # switching from write to read (changes tWTR)
WR                                     12 # last data-in to row precharge
CL                                     12 # CAS latency
WL                                      4 # Write latency
nbkgrp                                  4 # number of bank groups
CCDL                                    3 # column to column delay between accesses to different bank groups
RTPL                                    2 # read to precharge delay between accesses to different bank groups
Total number of memory sub partition = 12
addr_dec_mask[CHIP]  = 0000000000000000 	high:64 low:0
addr_dec_mask[BK]    = 000000000000e100 	high:16 low:8
addr_dec_mask[ROW]   = 000000000fff0000 	high:28 low:16
addr_dec_mask[COL]   = 0000000000001eff 	high:13 low:0
addr_dec_mask[BURST] = 000000000000003f 	high:6 low:0
sub_partition_id_mask = 0000000000000100
GPGPU-Sim uArch: clock freqs: 700000000.000000:700000000.000000:700000000.000000:924000000.000000
GPGPU-Sim uArch: clock periods: 0.00000000142857142857:0.00000000142857142857:0.00000000142857142857:0.00000000108225108225
*** Initializing Memory Statistics ***
GPGPU-Sim uArch: interconnect node map (shaderID+MemID to icntID)
GPGPU-Sim uArch: Memory nodes ID start from index: 15
GPGPU-Sim uArch:    0   1   2   3   4
GPGPU-Sim uArch:    5   6   7   8   9
GPGPU-Sim uArch:   10  11  12  13  14
GPGPU-Sim uArch:   15  16  17  18  19
GPGPU-Sim uArch:   20  21  22  23  24
GPGPU-Sim uArch:   25  26
GPGPU-Sim uArch: interconnect node reverse map (icntID to shaderID+MemID)
GPGPU-Sim uArch: Memory nodes start from ID: 15
GPGPU-Sim uArch:    0   1   2   3   4
GPGPU-Sim uArch:    5   6   7   8   9
GPGPU-Sim uArch:   10  11  12  13  14
GPGPU-Sim uArch:   15  16  17  18  19
GPGPU-Sim uArch:   20  21  22  23  24
GPGPU-Sim uArch:   25  26
a32c5c7bd2c9c4e4f9085af0000c6dec  /root/ispass2009-benchmarks/bin/release/CP
GPGPU-Sim uArch: performance model initialization complete.
GPGPU-Sim PTX: __cudaRegisterFatBinary, fat_cubin_handle = 1, filename=src/cuda_short/main.cu
self exe links to: /root/ispass2009-benchmarks/bin/release/CP
Running md5sum using "md5sum /root/ispass2009-benchmarks/bin/release/CP "
Running cuobjdump using "$CUDA_INSTALL_PATH/bin/cuobjdump -ptx -elf -sass /root/ispass2009-benchmarks/bin/release/CP > _cuobjdump_complete_output_o9uNwo"
Parsing file _cuobjdump_complete_output_o9uNwo
######### cuobjdump parser ########
## Adding new section ELF
Adding arch: sm_10
Adding identifier: src/cuda_short/main.cu
## Adding new section PTX
Adding ptx filename: _cuobjdump_1.ptx
Adding arch: sm_10
Adding identifier: src/cuda_short/main.cu
## Adding new section ELF
Adding arch: sm_10
Adding identifier: src/cuda_short/cuenergy_pre8_coalesce.cu
## Adding new section PTX
Adding ptx filename: _cuobjdump_2.ptx
Adding arch: sm_10
Adding identifier: src/cuda_short/cuenergy_pre8_coalesce.cu
Done parsing!!!
GPGPU-Sim PTX: __cudaRegisterFatBinary, fat_cubin_handle = 2, filename=src/cuda_short/cuenergy_pre8_coalesce.cu
GPGPU-Sim PTX: __cudaRegisterFunction _Z7cenergyifPf : hostFun 0x0x401d52, fat_cubin_handle = 2
GPGPU-Sim PTX: allocating constant region for "atominfo" from 0x100 to 0xfb00 (global memory space) 1
GPGPU-Sim PTX: instruction assembly for function '_Z7cenergyifPf'...   done.
GPGPU-Sim PTX: finding reconvergence points for '_Z7cenergyifPf'...
GPGPU-Sim PTX: Finding dominators for '_Z7cenergyifPf'...
GPGPU-Sim PTX: Finding immediate dominators for '_Z7cenergyifPf'...
GPGPU-Sim PTX: Finding postdominators for '_Z7cenergyifPf'...
GPGPU-Sim PTX: Finding immediate postdominators for '_Z7cenergyifPf'...
GPGPU-Sim PTX: pre-decoding instructions for '_Z7cenergyifPf'...
GPGPU-Sim PTX: reconvergence points for _Z7cenergyifPf...
GPGPU-Sim PTX:  1 (potential) branch divergence @  PC=0x048 (_2.ptx:70) @%p1 bra $Lt_0_2306;
GPGPU-Sim PTX:    immediate post dominator      @  PC=0x1c0 (_2.ptx:126) cvt.u32.u16 %r20, %nctaid.x;
GPGPU-Sim PTX:  2 (potential) branch divergence @  PC=0x178 (_2.ptx:114) @%p2 bra $Lt_0_1794;
GPGPU-Sim PTX:    immediate post dominator      @  PC=0x180 (_2.ptx:115) bra.uni $Lt_0_1282;
GPGPU-Sim PTX:  3 (potential) branch divergence @  PC=0x180 (_2.ptx:115) bra.uni $Lt_0_1282;
GPGPU-Sim PTX:    immediate post dominator      @  PC=0x1c0 (_2.ptx:126) cvt.u32.u16 %r20, %nctaid.x;
GPGPU-Sim PTX: ... end of reconvergence points for _Z7cenergyifPf
GPGPU-Sim PTX: ... done pre-decoding instructions for '_Z7cenergyifPf'.
GPGPU-Sim PTX: finished parsing EMBEDDED .ptx file _2.ptx
Adding _cuobjdump_2.ptx with cubin handle 2
GPGPU-Sim PTX: extracting embedded .ptx to temporary file "_ptx_fBhwyJ"
Running: cat _ptx_fBhwyJ | sed 's/.version 1.5/.version 1.4/' | sed 's/, texmode_independent//' | sed 's/\(\.extern \.const\[1\] .b8 \w\+\)\[\]/\1\[1\]/' | sed 's/const\[.\]/const\[0\]/g' > _ptx2_qgigA4
GPGPU-Sim PTX: generating ptxinfo using "$CUDA_INSTALL_PATH/bin/ptxas --gpu-name=sm_20 -v _ptx2_qgigA4 --output-file  /dev/null 2> _ptx_fBhwyJinfo"
GPGPU-Sim PTX: Kernel '_Z7cenergyifPf' : regs=15, lmem=0, smem=0, cmem=64048
GPGPU-Sim PTX: removing ptxinfo using "rm -f _ptx_fBhwyJ _ptx2_qgigA4 _ptx_fBhwyJinfo"
GPGPU-Sim PTX: loading globals with explicit initializers... 
GPGPU-Sim PTX: finished loading globals (0 bytes total).
GPGPU-Sim PTX: loading constants with explicit initializers...  done.
GPGPU-Sim PTX: __cudaRegisterVar: hostVar = 0x616180; deviceAddress = atominfo; deviceName = atominfo
GPGPU-Sim PTX: __cudaRegisterVar: Registering const memory space of 64000 bytes
GPGPU-Sim PTX registering constant atominfo (64000 bytes) to name mapping
CUDA accelerated coulombic potential microbenchmark
Original version by John E. Stone <johns@ks.uiuc.edu>
This version maintained by Chris Rodrigues
GPGPU-Sim PTX: cudaMemcpyToSymbol: symbol = 0x616180
GPGPU-Sim PTX: starting gpgpu_ptx_sim_memcpy_symbol with hostVar 0x0x616180
GPGPU-Sim PTX: gpgpu_ptx_sim_memcpy_symbol: Found PTX symbol w/ hostVar=0x616180
GPGPU-Sim PTX: gpgpu_ptx_sim_memcpy_symbol: copying const memory 3200 bytes  to  symbol atominfo+0 @0x100 ...

GPGPU-Sim PTX: cudaLaunch for 0x0x401d52 (mode=performance simulation) on stream 0
GPGPU-Sim PTX: pushing kernel '_Z7cenergyifPf' to stream 0, gridDim= (8,32,1) blockDim = (16,8,1) 
kernel '_Z7cenergyifPf' transfer to GPU hardware scheduler
GPGPU-Sim uArch: Shader 1 bind to kernel 1 '_Z7cenergyifPf'
GPGPU-Sim uArch: CTA/core = 8, limited by: cta_limit
GPGPU-Sim uArch: core:  1, cta: 0 initialized @(1,0)
GPGPU-Sim uArch: Shader 2 bind to kernel 1 '_Z7cenergyifPf'
GPGPU-Sim uArch: core:  2, cta: 0 initialized @(1,0)
GPGPU-Sim uArch: Shader 3 bind to kernel 1 '_Z7cenergyifPf'
GPGPU-Sim uArch: core:  3, cta: 0 initialized @(1,0)
GPGPU-Sim uArch: Shader 4 bind to kernel 1 '_Z7cenergyifPf'
GPGPU-Sim uArch: core:  4, cta: 0 initialized @(1,0)
GPGPU-Sim uArch: Shader 5 bind to kernel 1 '_Z7cenergyifPf'
GPGPU-Sim uArch: core:  5, cta: 0 initialized @(1,0)
GPGPU-Sim uArch: Shader 6 bind to kernel 1 '_Z7cenergyifPf'
GPGPU-Sim uArch: core:  6, cta: 0 initialized @(1,0)
GPGPU-Sim uArch: Shader 7 bind to kernel 1 '_Z7cenergyifPf'
GPGPU-Sim uArch: core:  7, cta: 0 initialized @(1,0)
GPGPU-Sim uArch: Shader 8 bind to kernel 1 '_Z7cenergyifPf'
GPGPU-Sim uArch: core:  8, cta: 0 initialized @(1,0)
GPGPU-Sim uArch: Shader 9 bind to kernel 1 '_Z7cenergyifPf'
GPGPU-Sim uArch: core:  9, cta: 0 initialized @(1,0)
GPGPU-Sim uArch: Shader 10 bind to kernel 1 '_Z7cenergyifPf'
GPGPU-Sim uArch: core: 10, cta: 0 initialized @(1,0)
GPGPU-Sim uArch: Shader 11 bind to kernel 1 '_Z7cenergyifPf'
GPGPU-Sim uArch: core: 11, cta: 0 initialized @(1,0)
GPGPU-Sim uArch: Shader 12 bind to kernel 1 '_Z7cenergyifPf'
GPGPU-Sim uArch: core: 12, cta: 0 initialized @(1,0)
GPGPU-Sim uArch: Shader 13 bind to kernel 1 '_Z7cenergyifPf'
GPGPU-Sim uArch: core: 13, cta: 0 initialized @(1,0)
GPGPU-Sim uArch: Shader 14 bind to kernel 1 '_Z7cenergyifPf'
GPGPU-Sim uArch: core: 14, cta: 0 initialized @(1,0)
GPGPU-Sim uArch: Shader 0 bind to kernel 1 '_Z7cenergyifPf'
GPGPU-Sim uArch: core:  0, cta: 0 initialized @(1,0)
GPGPU-Sim uArch: core:  1, cta: 1 initialized @(2,0)
GPGPU-Sim uArch: core:  2, cta: 1 initialized @(2,0)
GPGPU-Sim uArch: core:  3, cta: 1 initialized @(2,0)
GPGPU-Sim uArch: core:  4, cta: 1 initialized @(2,0)
GPGPU-Sim uArch: core:  5, cta: 1 initialized @(2,0)
GPGPU-Sim uArch: core:  6, cta: 1 initialized @(2,0)
GPGPU-Sim uArch: core:  7, cta: 1 initialized @(2,0)
GPGPU-Sim uArch: core:  8, cta: 1 initialized @(2,0)
GPGPU-Sim uArch: core:  9, cta: 1 initialized @(2,0)
GPGPU-Sim uArch: core: 10, cta: 1 initialized @(2,0)
GPGPU-Sim uArch: core: 11, cta: 1 initialized @(2,0)
GPGPU-Sim uArch: core: 12, cta: 1 initialized @(2,0)
GPGPU-Sim uArch: core: 13, cta: 1 initialized @(2,0)
GPGPU-Sim uArch: core: 14, cta: 1 initialized @(2,0)
GPGPU-Sim uArch: core:  0, cta: 1 initialized @(2,0)
GPGPU-Sim uArch: core:  1, cta: 2 initialized @(3,0)
GPGPU-Sim uArch: core:  2, cta: 2 initialized @(3,0)
GPGPU-Sim uArch: core:  3, cta: 2 initialized @(3,0)
GPGPU-Sim uArch: core:  4, cta: 2 initialized @(3,0)
GPGPU-Sim uArch: core:  5, cta: 2 initialized @(3,0)
GPGPU-Sim uArch: core:  6, cta: 2 initialized @(3,0)
GPGPU-Sim uArch: core:  7, cta: 2 initialized @(3,0)
GPGPU-Sim uArch: core:  8, cta: 2 initialized @(3,0)
GPGPU-Sim uArch: core:  9, cta: 2 initialized @(3,0)
GPGPU-Sim uArch: core: 10, cta: 2 initialized @(3,0)
GPGPU-Sim uArch: core: 11, cta: 2 initialized @(3,0)
GPGPU-Sim uArch: core: 12, cta: 2 initialized @(3,0)
GPGPU-Sim uArch: core: 13, cta: 2 initialized @(3,0)
GPGPU-Sim uArch: core: 14, cta: 2 initialized @(3,0)
GPGPU-Sim uArch: core:  0, cta: 2 initialized @(3,0)
GPGPU-Sim uArch: core:  1, cta: 3 initialized @(4,0)
GPGPU-Sim uArch: core:  2, cta: 3 initialized @(4,0)
GPGPU-Sim uArch: core:  3, cta: 3 initialized @(4,0)
GPGPU-Sim uArch: core:  4, cta: 3 initialized @(4,0)
GPGPU-Sim uArch: core:  5, cta: 3 initialized @(4,0)
GPGPU-Sim uArch: core:  6, cta: 3 initialized @(4,0)
GPGPU-Sim uArch: core:  7, cta: 3 initialized @(4,0)
GPGPU-Sim uArch: core:  8, cta: 3 initialized @(4,0)
GPGPU-Sim uArch: core:  9, cta: 3 initialized @(4,0)
GPGPU-Sim uArch: core: 10, cta: 3 initialized @(4,0)
GPGPU-Sim uArch: core: 11, cta: 3 initialized @(4,0)
GPGPU-Sim uArch: core: 12, cta: 3 initialized @(4,0)
GPGPU-Sim uArch: core: 13, cta: 3 initialized @(4,0)
GPGPU-Sim uArch: core: 14, cta: 3 initialized @(4,0)
GPGPU-Sim uArch: core:  0, cta: 3 initialized @(4,0)
GPGPU-Sim uArch: core:  1, cta: 4 initialized @(5,0)
GPGPU-Sim uArch: core:  2, cta: 4 initialized @(5,0)
GPGPU-Sim uArch: core:  3, cta: 4 initialized @(5,0)
GPGPU-Sim uArch: core:  4, cta: 4 initialized @(5,0)
GPGPU-Sim uArch: core:  5, cta: 4 initialized @(5,0)
GPGPU-Sim uArch: core:  6, cta: 4 initialized @(5,0)
GPGPU-Sim uArch: core:  7, cta: 4 initialized @(5,0)
GPGPU-Sim uArch: core:  8, cta: 4 initialized @(5,0)
GPGPU-Sim uArch: core:  9, cta: 4 initialized @(5,0)
GPGPU-Sim uArch: core: 10, cta: 4 initialized @(5,0)
GPGPU-Sim uArch: core: 11, cta: 4 initialized @(5,0)
GPGPU-Sim uArch: core: 12, cta: 4 initialized @(5,0)
GPGPU-Sim uArch: core: 13, cta: 4 initialized @(5,0)
GPGPU-Sim uArch: core: 14, cta: 4 initialized @(5,0)
GPGPU-Sim uArch: core:  0, cta: 4 initialized @(5,0)
GPGPU-Sim uArch: core:  1, cta: 5 initialized @(6,0)
GPGPU-Sim uArch: core:  2, cta: 5 initialized @(6,0)
GPGPU-Sim uArch: core:  3, cta: 5 initialized @(6,0)
GPGPU-Sim uArch: core:  4, cta: 5 initialized @(6,0)
GPGPU-Sim uArch: core:  5, cta: 5 initialized @(6,0)
GPGPU-Sim uArch: core:  6, cta: 5 initialized @(6,0)
GPGPU-Sim uArch: core:  7, cta: 5 initialized @(6,0)
GPGPU-Sim uArch: core:  8, cta: 5 initialized @(6,0)
GPGPU-Sim uArch: core:  9, cta: 5 initialized @(6,0)
GPGPU-Sim uArch: core: 10, cta: 5 initialized @(6,0)
GPGPU-Sim uArch: core: 11, cta: 5 initialized @(6,0)
GPGPU-Sim uArch: core: 12, cta: 5 initialized @(6,0)
GPGPU-Sim uArch: core: 13, cta: 5 initialized @(6,0)
GPGPU-Sim uArch: core: 14, cta: 5 initialized @(6,0)
GPGPU-Sim uArch: core:  0, cta: 5 initialized @(6,0)
GPGPU-Sim uArch: core:  1, cta: 6 initialized @(7,0)
GPGPU-Sim uArch: core:  2, cta: 6 initialized @(7,0)
GPGPU-Sim uArch: core:  3, cta: 6 initialized @(7,0)
GPGPU-Sim uArch: core:  4, cta: 6 initialized @(7,0)
GPGPU-Sim uArch: core:  5, cta: 6 initialized @(7,0)
GPGPU-Sim uArch: core:  6, cta: 6 initialized @(7,0)
GPGPU-Sim uArch: core:  7, cta: 6 initialized @(7,0)
GPGPU-Sim uArch: core:  8, cta: 6 initialized @(7,0)
GPGPU-Sim uArch: core:  9, cta: 6 initialized @(7,0)
GPGPU-Sim uArch: core: 10, cta: 6 initialized @(7,0)
GPGPU-Sim uArch: core: 11, cta: 6 initialized @(7,0)
GPGPU-Sim uArch: core: 12, cta: 6 initialized @(7,0)
GPGPU-Sim uArch: core: 13, cta: 6 initialized @(7,0)
GPGPU-Sim uArch: core: 14, cta: 6 initialized @(7,0)
GPGPU-Sim uArch: core:  0, cta: 6 initialized @(7,0)
GPGPU-Sim uArch: core:  1, cta: 7 initialized @(8,0)
GPGPU-Sim uArch: core:  2, cta: 7 initialized @(8,0)
GPGPU-Sim uArch: core:  3, cta: 7 initialized @(8,0)
GPGPU-Sim uArch: core:  4, cta: 7 initialized @(8,0)
GPGPU-Sim uArch: core:  5, cta: 7 initialized @(8,0)
GPGPU-Sim uArch: core:  6, cta: 7 initialized @(8,0)
GPGPU-Sim uArch: core:  7, cta: 7 initialized @(8,0)
GPGPU-Sim uArch: core:  8, cta: 7 initialized @(8,0)
GPGPU-Sim uArch: core:  9, cta: 7 initialized @(8,0)
GPGPU-Sim uArch: core: 10, cta: 7 initialized @(8,0)
GPGPU-Sim uArch: core: 11, cta: 7 initialized @(8,0)
GPGPU-Sim uArch: core: 12, cta: 7 initialized @(8,0)
GPGPU-Sim uArch: core: 13, cta: 7 initialized @(8,0)
GPGPU-Sim uArch: core: 14, cta: 7 initialized @(8,0)
GPGPU-Sim uArch: core:  0, cta: 7 initialized @(8,0)
GPGPU-Sim PTX: 100000 instructions simulated : ctaid=(1,7,0) tid=(15,1,0)
GPGPU-Sim uArch: cycles simulated: 500  inst.: 106720 (ipc=213.4) sim_rate=106720 (inst/sec) elapsed = 0:0:00:01 / Thu Dec 14 14:41:14 2017
GPGPU-Sim PTX: 200000 instructions simulated : ctaid=(3,0,0) tid=(15,3,0)
GPGPU-Sim PTX: 300000 instructions simulated : ctaid=(5,2,0) tid=(15,5,0)
GPGPU-Sim PTX: 400000 instructions simulated : ctaid=(4,14,0) tid=(15,3,0)
GPGPU-Sim PTX: 500000 instructions simulated : ctaid=(3,1,0) tid=(15,1,0)
GPGPU-Sim PTX: 600000 instructions simulated : ctaid=(7,4,0) tid=(15,3,0)
GPGPU-Sim PTX: 700000 instructions simulated : ctaid=(2,14,0) tid=(15,1,0)
GPGPU-Sim PTX: 800000 instructions simulated : ctaid=(5,2,0) tid=(15,1,0)
GPGPU-Sim PTX: 900000 instructions simulated : ctaid=(4,14,0) tid=(15,7,0)
GPGPU-Sim uArch: cycles simulated: 2500  inst.: 900416 (ipc=360.2) sim_rate=450208 (inst/sec) elapsed = 0:0:00:02 / Thu Dec 14 14:41:16 2017
GPGPU-Sim PTX: 1000000 instructions simulated : ctaid=(5,13,0) tid=(15,5,0)
GPGPU-Sim PTX: 1100000 instructions simulated : ctaid=(5,1,0) tid=(15,7,0)
GPGPU-Sim PTX: 1200000 instructions simulated : ctaid=(6,10,0) tid=(15,1,0)
GPGPU-Sim PTX: 1300000 instructions simulated : ctaid=(6,13,0) tid=(15,3,0)
GPGPU-Sim PTX: 1400000 instructions simulated : ctaid=(5,7,0) tid=(15,3,0)
GPGPU-Sim PTX: 1500000 instructions simulated : ctaid=(7,0,0) tid=(15,5,0)
GPGPU-Sim uArch: cycles simulated: 3500  inst.: 1490048 (ipc=425.7) sim_rate=496682 (inst/sec) elapsed = 0:0:00:03 / Thu Dec 14 14:41:17 2017
GPGPU-Sim PTX: 1600000 instructions simulated : ctaid=(5,5,0) tid=(15,1,0)
GPGPU-Sim PTX: 1700000 instructions simulated : ctaid=(1,8,0) tid=(15,3,0)
GPGPU-Sim PTX: 1800000 instructions simulated : ctaid=(3,6,0) tid=(15,1,0)
GPGPU-Sim PTX: 1900000 instructions simulated : ctaid=(3,9,0) tid=(15,7,0)
GPGPU-Sim PTX: 2000000 instructions simulated : ctaid=(1,10,0) tid=(15,3,0)
GPGPU-Sim PTX: 2100000 instructions simulated : ctaid=(5,14,0) tid=(15,1,0)
GPGPU-Sim PTX: 2200000 instructions simulated : ctaid=(4,2,0) tid=(15,5,0)
GPGPU-Sim PTX: 2300000 instructions simulated : ctaid=(6,7,0) tid=(15,1,0)
GPGPU-Sim uArch: cycles simulated: 5000  inst.: 2349664 (ipc=469.9) sim_rate=587416 (inst/sec) elapsed = 0:0:00:04 / Thu Dec 14 14:41:18 2017
GPGPU-Sim PTX: 2400000 instructions simulated : ctaid=(2,7,0) tid=(15,7,0)
GPGPU-Sim PTX: 2500000 instructions simulated : ctaid=(3,0,0) tid=(15,5,0)
GPGPU-Sim PTX: 2600000 instructions simulated : ctaid=(7,1,0) tid=(15,7,0)
GPGPU-Sim PTX: 2700000 instructions simulated : ctaid=(1,14,0) tid=(15,7,0)
GPGPU-Sim PTX: 2800000 instructions simulated : ctaid=(3,4,0) tid=(15,7,0)
GPGPU-Sim PTX: 2900000 instructions simulated : ctaid=(0,1,0) tid=(15,7,0)
GPGPU-Sim uArch: cycles simulated: 6000  inst.: 2904320 (ipc=484.1) sim_rate=580864 (inst/sec) elapsed = 0:0:00:05 / Thu Dec 14 14:41:19 2017
GPGPU-Sim PTX: 3000000 instructions simulated : ctaid=(4,2,0) tid=(15,1,0)
GPGPU-Sim PTX: 3100000 instructions simulated : ctaid=(7,4,0) tid=(15,1,0)
GPGPU-Sim PTX: 3200000 instructions simulated : ctaid=(1,12,0) tid=(15,5,0)
GPGPU-Sim PTX: 3300000 instructions simulated : ctaid=(1,6,0) tid=(15,3,0)
GPGPU-Sim PTX: 3400000 instructions simulated : ctaid=(7,5,0) tid=(15,3,0)
GPGPU-Sim PTX: 3500000 instructions simulated : ctaid=(4,0,0) tid=(15,5,0)
GPGPU-Sim PTX: 3600000 instructions simulated : ctaid=(6,11,0) tid=(15,7,0)
GPGPU-Sim PTX: 3700000 instructions simulated : ctaid=(6,7,0) tid=(15,5,0)
GPGPU-Sim uArch: cycles simulated: 7500  inst.: 3747456 (ipc=499.7) sim_rate=624576 (inst/sec) elapsed = 0:0:00:06 / Thu Dec 14 14:41:20 2017
GPGPU-Sim PTX: 3800000 instructions simulated : ctaid=(0,10,0) tid=(15,1,0)
GPGPU-Sim PTX: 3900000 instructions simulated : ctaid=(0,12,0) tid=(15,3,0)
GPGPU-Sim PTX: 4000000 instructions simulated : ctaid=(0,11,0) tid=(15,3,0)
GPGPU-Sim PTX: 4100000 instructions simulated : ctaid=(1,1,0) tid=(15,7,0)
GPGPU-Sim PTX: 4200000 instructions simulated : ctaid=(5,12,0) tid=(15,3,0)
GPGPU-Sim PTX: 4300000 instructions simulated : ctaid=(1,13,0) tid=(15,1,0)
GPGPU-Sim uArch: cycles simulated: 8500  inst.: 4308800 (ipc=506.9) sim_rate=615542 (inst/sec) elapsed = 0:0:00:07 / Thu Dec 14 14:41:21 2017
GPGPU-Sim PTX: 4400000 instructions simulated : ctaid=(5,4,0) tid=(15,1,0)
GPGPU-Sim PTX: 4500000 instructions simulated : ctaid=(1,8,0) tid=(15,3,0)
GPGPU-Sim PTX: 4600000 instructions simulated : ctaid=(4,13,0) tid=(15,3,0)
GPGPU-Sim PTX: 4700000 instructions simulated : ctaid=(2,4,0) tid=(15,5,0)
GPGPU-Sim PTX: 4800000 instructions simulated : ctaid=(3,3,0) tid=(15,5,0)
GPGPU-Sim PTX: 4900000 instructions simulated : ctaid=(7,1,0) tid=(15,3,0)
GPGPU-Sim PTX: 5000000 instructions simulated : ctaid=(0,3,0) tid=(15,3,0)
GPGPU-Sim PTX: 5100000 instructions simulated : ctaid=(1,3,0) tid=(15,7,0)
GPGPU-Sim uArch: cycles simulated: 10000  inst.: 5124288 (ipc=512.4) sim_rate=640536 (inst/sec) elapsed = 0:0:00:08 / Thu Dec 14 14:41:22 2017
GPGPU-Sim PTX: 5200000 instructions simulated : ctaid=(5,1,0) tid=(15,5,0)
GPGPU-Sim PTX: 5300000 instructions simulated : ctaid=(6,2,0) tid=(15,5,0)
GPGPU-Sim PTX: 5400000 instructions simulated : ctaid=(0,12,0) tid=(15,3,0)
GPGPU-Sim PTX: 5500000 instructions simulated : ctaid=(7,9,0) tid=(15,7,0)
GPGPU-Sim PTX: 5600000 instructions simulated : ctaid=(0,3,0) tid=(15,1,0)
GPGPU-Sim PTX: 5700000 instructions simulated : ctaid=(6,6,0) tid=(15,5,0)
GPGPU-Sim uArch: cycles simulated: 11000  inst.: 5695936 (ipc=517.8) sim_rate=632881 (inst/sec) elapsed = 0:0:00:09 / Thu Dec 14 14:41:23 2017
GPGPU-Sim PTX: 5800000 instructions simulated : ctaid=(1,0,0) tid=(15,5,0)
GPGPU-Sim PTX: 5900000 instructions simulated : ctaid=(2,5,0) tid=(15,5,0)
GPGPU-Sim PTX: 6000000 instructions simulated : ctaid=(5,11,0) tid=(15,3,0)
GPGPU-Sim PTX: 6100000 instructions simulated : ctaid=(7,6,0) tid=(15,7,0)
GPGPU-Sim PTX: 6200000 instructions simulated : ctaid=(1,5,0) tid=(15,3,0)
GPGPU-Sim PTX: 6300000 instructions simulated : ctaid=(0,5,0) tid=(15,3,0)
GPGPU-Sim PTX: 6400000 instructions simulated : ctaid=(5,4,0) tid=(15,5,0)
GPGPU-Sim PTX: 6500000 instructions simulated : ctaid=(1,14,0) tid=(15,3,0)
GPGPU-Sim uArch: cycles simulated: 12500  inst.: 6528128 (ipc=522.3) sim_rate=652812 (inst/sec) elapsed = 0:0:00:10 / Thu Dec 14 14:41:24 2017
GPGPU-Sim PTX: 6600000 instructions simulated : ctaid=(6,7,0) tid=(15,1,0)
GPGPU-Sim PTX: 6700000 instructions simulated : ctaid=(6,7,0) tid=(15,7,0)
GPGPU-Sim PTX: 6800000 instructions simulated : ctaid=(0,1,0) tid=(15,1,0)
GPGPU-Sim PTX: 6900000 instructions simulated : ctaid=(6,7,0) tid=(15,7,0)
GPGPU-Sim PTX: 7000000 instructions simulated : ctaid=(6,11,0) tid=(15,1,0)
GPGPU-Sim PTX: 7100000 instructions simulated : ctaid=(6,6,0) tid=(15,1,0)
GPGPU-Sim uArch: cycles simulated: 13500  inst.: 7098400 (ipc=525.8) sim_rate=645309 (inst/sec) elapsed = 0:0:00:11 / Thu Dec 14 14:41:25 2017
GPGPU-Sim PTX: 7200000 instructions simulated : ctaid=(0,14,0) tid=(15,5,0)
GPGPU-Sim PTX: 7300000 instructions simulated : ctaid=(3,2,0) tid=(15,5,0)
GPGPU-Sim PTX: 7400000 instructions simulated : ctaid=(1,5,0) tid=(15,5,0)
GPGPU-Sim PTX: 7500000 instructions simulated : ctaid=(3,0,0) tid=(15,1,0)
GPGPU-Sim PTX: 7600000 instructions simulated : ctaid=(1,3,0) tid=(15,5,0)
GPGPU-Sim PTX: 7700000 instructions simulated : ctaid=(5,12,0) tid=(15,3,0)
GPGPU-Sim PTX: 7800000 instructions simulated : ctaid=(5,8,0) tid=(15,1,0)
GPGPU-Sim PTX: 7900000 instructions simulated : ctaid=(0,8,0) tid=(15,7,0)
GPGPU-Sim uArch: cycles simulated: 15000  inst.: 7912096 (ipc=527.5) sim_rate=659341 (inst/sec) elapsed = 0:0:00:12 / Thu Dec 14 14:41:26 2017
GPGPU-Sim PTX: 8000000 instructions simulated : ctaid=(2,13,0) tid=(15,1,0)
GPGPU-Sim PTX: 8100000 instructions simulated : ctaid=(4,11,0) tid=(15,5,0)
GPGPU-Sim PTX: 8200000 instructions simulated : ctaid=(3,8,0) tid=(15,3,0)
GPGPU-Sim PTX: 8300000 instructions simulated : ctaid=(2,2,0) tid=(15,5,0)
GPGPU-Sim PTX: 8400000 instructions simulated : ctaid=(0,10,0) tid=(15,3,0)
GPGPU-Sim uArch: cycles simulated: 16000  inst.: 8467168 (ipc=529.2) sim_rate=651320 (inst/sec) elapsed = 0:0:00:13 / Thu Dec 14 14:41:27 2017
GPGPU-Sim PTX: 8500000 instructions simulated : ctaid=(6,9,0) tid=(15,1,0)
GPGPU-Sim PTX: 8600000 instructions simulated : ctaid=(0,6,0) tid=(15,1,0)
GPGPU-Sim PTX: 8700000 instructions simulated : ctaid=(4,7,0) tid=(15,1,0)
GPGPU-Sim PTX: 8800000 instructions simulated : ctaid=(0,2,0) tid=(15,3,0)
GPGPU-Sim PTX: 8900000 instructions simulated : ctaid=(6,5,0) tid=(15,7,0)
GPGPU-Sim PTX: 9000000 instructions simulated : ctaid=(5,12,0) tid=(15,7,0)
GPGPU-Sim PTX: 9100000 instructions simulated : ctaid=(5,4,0) tid=(15,3,0)
GPGPU-Sim PTX: 9200000 instructions simulated : ctaid=(2,9,0) tid=(15,5,0)
GPGPU-Sim PTX: 9300000 instructions simulated : ctaid=(5,4,0) tid=(15,3,0)
GPGPU-Sim uArch: cycles simulated: 17500  inst.: 9312320 (ipc=532.1) sim_rate=665165 (inst/sec) elapsed = 0:0:00:14 / Thu Dec 14 14:41:28 2017
GPGPU-Sim PTX: 9400000 instructions simulated : ctaid=(5,8,0) tid=(15,3,0)
GPGPU-Sim PTX: 9500000 instructions simulated : ctaid=(1,6,0) tid=(15,1,0)
GPGPU-Sim PTX: 9600000 instructions simulated : ctaid=(2,6,0) tid=(15,7,0)
GPGPU-Sim PTX: 9700000 instructions simulated : ctaid=(4,13,0) tid=(15,1,0)
GPGPU-Sim PTX: 9800000 instructions simulated : ctaid=(3,8,0) tid=(15,3,0)
GPGPU-Sim uArch: cycles simulated: 18500  inst.: 9797088 (ipc=529.6) sim_rate=653139 (inst/sec) elapsed = 0:0:00:15 / Thu Dec 14 14:41:29 2017
GPGPU-Sim PTX: 9900000 instructions simulated : ctaid=(2,4,0) tid=(15,7,0)
GPGPU-Sim PTX: 10000000 instructions simulated : ctaid=(7,2,0) tid=(15,1,0)
GPGPU-Sim PTX: 10100000 instructions simulated : ctaid=(7,10,0) tid=(15,5,0)
GPGPU-Sim PTX: 10200000 instructions simulated : ctaid=(1,10,0) tid=(15,7,0)
GPGPU-Sim PTX: 10300000 instructions simulated : ctaid=(3,9,0) tid=(15,3,0)
GPGPU-Sim PTX: 10400000 instructions simulated : ctaid=(7,9,0) tid=(15,7,0)
GPGPU-Sim PTX: 10500000 instructions simulated : ctaid=(4,5,0) tid=(15,1,0)
GPGPU-Sim PTX: 10600000 instructions simulated : ctaid=(5,13,0) tid=(15,7,0)
GPGPU-Sim uArch: cycles simulated: 20000  inst.: 10653408 (ipc=532.7) sim_rate=665838 (inst/sec) elapsed = 0:0:00:16 / Thu Dec 14 14:41:30 2017
GPGPU-Sim PTX: 10700000 instructions simulated : ctaid=(5,6,0) tid=(15,3,0)
GPGPU-Sim PTX: 10800000 instructions simulated : ctaid=(0,1,0) tid=(15,3,0)
GPGPU-Sim PTX: 10900000 instructions simulated : ctaid=(3,13,0) tid=(15,7,0)
GPGPU-Sim PTX: 11000000 instructions simulated : ctaid=(7,10,0) tid=(15,7,0)
GPGPU-Sim PTX: 11100000 instructions simulated : ctaid=(5,0,0) tid=(15,7,0)
GPGPU-Sim PTX: 11200000 instructions simulated : ctaid=(2,1,0) tid=(15,5,0)
GPGPU-Sim uArch: cycles simulated: 21000  inst.: 11192864 (ipc=533.0) sim_rate=658403 (inst/sec) elapsed = 0:0:00:17 / Thu Dec 14 14:41:31 2017
GPGPU-Sim PTX: 11300000 instructions simulated : ctaid=(2,6,0) tid=(15,1,0)
GPGPU-Sim PTX: 11400000 instructions simulated : ctaid=(5,8,0) tid=(15,7,0)
GPGPU-Sim PTX: 11500000 instructions simulated : ctaid=(5,6,0) tid=(15,7,0)
GPGPU-Sim PTX: 11600000 instructions simulated : ctaid=(1,11,0) tid=(15,3,0)
GPGPU-Sim PTX: 11700000 instructions simulated : ctaid=(4,2,0) tid=(15,1,0)
GPGPU-Sim uArch: cycles simulated: 22000  inst.: 11762944 (ipc=534.7) sim_rate=653496 (inst/sec) elapsed = 0:0:00:18 / Thu Dec 14 14:41:32 2017
GPGPU-Sim PTX: 11800000 instructions simulated : ctaid=(0,6,0) tid=(15,1,0)
GPGPU-Sim PTX: 11900000 instructions simulated : ctaid=(0,13,0) tid=(15,7,0)
GPGPU-Sim PTX: 12000000 instructions simulated : ctaid=(7,11,0) tid=(15,1,0)
GPGPU-Sim PTX: 12100000 instructions simulated : ctaid=(1,0,0) tid=(15,3,0)
GPGPU-Sim PTX: 12200000 instructions simulated : ctaid=(4,5,0) tid=(15,5,0)
GPGPU-Sim PTX: 12300000 instructions simulated : ctaid=(4,3,0) tid=(15,1,0)
GPGPU-Sim PTX: 12400000 instructions simulated : ctaid=(7,8,0) tid=(15,1,0)
GPGPU-Sim PTX: 12500000 instructions simulated : ctaid=(3,9,0) tid=(15,7,0)
GPGPU-Sim uArch: cycles simulated: 23500  inst.: 12551456 (ipc=534.1) sim_rate=660602 (inst/sec) elapsed = 0:0:00:19 / Thu Dec 14 14:41:33 2017
GPGPU-Sim PTX: 12600000 instructions simulated : ctaid=(1,0,0) tid=(15,7,0)
GPGPU-Sim PTX: 12700000 instructions simulated : ctaid=(6,0,0) tid=(15,1,0)
GPGPU-Sim PTX: 12800000 instructions simulated : ctaid=(2,14,0) tid=(15,5,0)
GPGPU-Sim PTX: 12900000 instructions simulated : ctaid=(0,6,0) tid=(15,1,0)
GPGPU-Sim PTX: 13000000 instructions simulated : ctaid=(0,4,0) tid=(15,1,0)
GPGPU-Sim PTX: 13100000 instructions simulated : ctaid=(1,4,0) tid=(15,5,0)
GPGPU-Sim uArch: cycles simulated: 24500  inst.: 13107680 (ipc=535.0) sim_rate=655384 (inst/sec) elapsed = 0:0:00:20 / Thu Dec 14 14:41:34 2017
GPGPU-Sim PTX: 13200000 instructions simulated : ctaid=(2,3,0) tid=(15,7,0)
GPGPU-Sim PTX: 13300000 instructions simulated : ctaid=(7,11,0) tid=(15,3,0)
GPGPU-Sim PTX: 13400000 instructions simulated : ctaid=(6,12,0) tid=(15,3,0)
GPGPU-Sim PTX: 13500000 instructions simulated : ctaid=(6,8,0) tid=(15,1,0)
GPGPU-Sim PTX: 13600000 instructions simulated : ctaid=(0,1,0) tid=(15,1,0)
GPGPU-Sim PTX: 13700000 instructions simulated : ctaid=(6,1,0) tid=(15,1,0)
GPGPU-Sim PTX: 13800000 instructions simulated : ctaid=(0,3,0) tid=(15,5,0)
GPGPU-Sim PTX: 13900000 instructions simulated : ctaid=(5,14,0) tid=(15,5,0)
GPGPU-Sim uArch: cycles simulated: 26000  inst.: 13953344 (ipc=536.7) sim_rate=664444 (inst/sec) elapsed = 0:0:00:21 / Thu Dec 14 14:41:35 2017
GPGPU-Sim PTX: 14000000 instructions simulated : ctaid=(3,2,0) tid=(15,1,0)
GPGPU-Sim PTX: 14100000 instructions simulated : ctaid=(3,3,0) tid=(15,3,0)
GPGPU-Sim PTX: 14200000 instructions simulated : ctaid=(1,14,0) tid=(15,1,0)
GPGPU-Sim PTX: 14300000 instructions simulated : ctaid=(2,10,0) tid=(15,1,0)
GPGPU-Sim PTX: 14400000 instructions simulated : ctaid=(6,4,0) tid=(15,1,0)
GPGPU-Sim uArch: cycles simulated: 27000  inst.: 14442208 (ipc=534.9) sim_rate=656464 (inst/sec) elapsed = 0:0:00:22 / Thu Dec 14 14:41:36 2017
GPGPU-Sim PTX: 14500000 instructions simulated : ctaid=(7,10,0) tid=(15,3,0)
GPGPU-Sim PTX: 14600000 instructions simulated : ctaid=(3,3,0) tid=(15,1,0)
GPGPU-Sim PTX: 14700000 instructions simulated : ctaid=(1,14,0) tid=(15,3,0)
GPGPU-Sim PTX: 14800000 instructions simulated : ctaid=(1,4,0) tid=(15,7,0)
GPGPU-Sim PTX: 14900000 instructions simulated : ctaid=(5,2,0) tid=(15,7,0)
GPGPU-Sim PTX: 15000000 instructions simulated : ctaid=(5,12,0) tid=(15,7,0)
GPGPU-Sim PTX: 15100000 instructions simulated : ctaid=(5,1,0) tid=(15,1,0)
GPGPU-Sim PTX: 15200000 instructions simulated : ctaid=(4,8,0) tid=(15,1,0)
GPGPU-Sim PTX: 15300000 instructions simulated : ctaid=(3,0,0) tid=(15,1,0)
GPGPU-Sim uArch: cycles simulated: 28500  inst.: 15297088 (ipc=536.7) sim_rate=665090 (inst/sec) elapsed = 0:0:00:23 / Thu Dec 14 14:41:37 2017
GPGPU-Sim PTX: 15400000 instructions simulated : ctaid=(7,0,0) tid=(15,1,0)
GPGPU-Sim PTX: 15500000 instructions simulated : ctaid=(7,8,0) tid=(15,3,0)
GPGPU-Sim PTX: 15600000 instructions simulated : ctaid=(5,9,0) tid=(15,1,0)
GPGPU-Sim PTX: 15700000 instructions simulated : ctaid=(2,1,0) tid=(15,1,0)
GPGPU-Sim PTX: 15800000 instructions simulated : ctaid=(0,5,0) tid=(15,5,0)
GPGPU-Sim PTX: 15900000 instructions simulated : ctaid=(3,0,0) tid=(15,3,0)
GPGPU-Sim PTX: 16000000 instructions simulated : ctaid=(3,10,0) tid=(15,5,0)
GPGPU-Sim PTX: 16100000 instructions simulated : ctaid=(3,3,0) tid=(15,3,0)
GPGPU-Sim uArch: cycles simulated: 30000  inst.: 16121696 (ipc=537.4) sim_rate=671737 (inst/sec) elapsed = 0:0:00:24 / Thu Dec 14 14:41:38 2017
GPGPU-Sim PTX: 16200000 instructions simulated : ctaid=(7,8,0) tid=(15,7,0)
GPGPU-Sim PTX: 16300000 instructions simulated : ctaid=(5,0,0) tid=(15,1,0)
GPGPU-Sim PTX: 16400000 instructions simulated : ctaid=(6,3,0) tid=(15,3,0)
GPGPU-Sim PTX: 16500000 instructions simulated : ctaid=(1,6,0) tid=(15,3,0)
GPGPU-Sim PTX: 16600000 instructions simulated : ctaid=(2,5,0) tid=(15,7,0)
GPGPU-Sim uArch: cycles simulated: 31000  inst.: 16655328 (ipc=537.3) sim_rate=666213 (inst/sec) elapsed = 0:0:00:25 / Thu Dec 14 14:41:39 2017
GPGPU-Sim PTX: 16700000 instructions simulated : ctaid=(6,2,0) tid=(15,7,0)
GPGPU-Sim PTX: 16800000 instructions simulated : ctaid=(3,8,0) tid=(15,3,0)
GPGPU-Sim PTX: 16900000 instructions simulated : ctaid=(3,1,0) tid=(15,7,0)
GPGPU-Sim PTX: 17000000 instructions simulated : ctaid=(0,7,0) tid=(15,3,0)
GPGPU-Sim PTX: 17100000 instructions simulated : ctaid=(2,7,0) tid=(15,1,0)
GPGPU-Sim PTX: 17200000 instructions simulated : ctaid=(6,3,0) tid=(15,3,0)
GPGPU-Sim PTX: 17300000 instructions simulated : ctaid=(6,7,0) tid=(15,3,0)
GPGPU-Sim PTX: 17400000 instructions simulated : ctaid=(2,12,0) tid=(15,7,0)
GPGPU-Sim PTX: 17500000 instructions simulated : ctaid=(3,12,0) tid=(15,3,0)
GPGPU-Sim uArch: cycles simulated: 32500  inst.: 17498368 (ipc=538.4) sim_rate=673014 (inst/sec) elapsed = 0:0:00:26 / Thu Dec 14 14:41:40 2017
GPGPU-Sim PTX: 17600000 instructions simulated : ctaid=(6,6,0) tid=(15,3,0)
GPGPU-Sim PTX: 17700000 instructions simulated : ctaid=(1,8,0) tid=(15,7,0)
GPGPU-Sim PTX: 17800000 instructions simulated : ctaid=(2,5,0) tid=(15,1,0)
GPGPU-Sim PTX: 17900000 instructions simulated : ctaid=(0,13,0) tid=(15,3,0)
GPGPU-Sim PTX: 18000000 instructions simulated : ctaid=(2,8,0) tid=(15,7,0)
GPGPU-Sim uArch: cycles simulated: 33500  inst.: 18041504 (ipc=538.6) sim_rate=668203 (inst/sec) elapsed = 0:0:00:27 / Thu Dec 14 14:41:41 2017
GPGPU-Sim PTX: 18100000 instructions simulated : ctaid=(3,12,0) tid=(15,3,0)
GPGPU-Sim PTX: 18200000 instructions simulated : ctaid=(5,9,0) tid=(15,3,0)
GPGPU-Sim PTX: 18300000 instructions simulated : ctaid=(7,6,0) tid=(15,3,0)
GPGPU-Sim PTX: 18400000 instructions simulated : ctaid=(0,14,0) tid=(15,3,0)
GPGPU-Sim PTX: 18500000 instructions simulated : ctaid=(4,14,0) tid=(15,3,0)
GPGPU-Sim PTX: 18600000 instructions simulated : ctaid=(7,6,0) tid=(15,1,0)
GPGPU-Sim PTX: 18700000 instructions simulated : ctaid=(4,2,0) tid=(15,1,0)
GPGPU-Sim PTX: 18800000 instructions simulated : ctaid=(2,7,0) tid=(15,7,0)
GPGPU-Sim PTX: 18900000 instructions simulated : ctaid=(0,8,0) tid=(15,5,0)
GPGPU-Sim uArch: cycles simulated: 35000  inst.: 18891680 (ipc=539.8) sim_rate=674702 (inst/sec) elapsed = 0:0:00:28 / Thu Dec 14 14:41:42 2017
GPGPU-Sim PTX: 19000000 instructions simulated : ctaid=(6,13,0) tid=(15,3,0)
GPGPU-Sim PTX: 19100000 instructions simulated : ctaid=(6,10,0) tid=(15,5,0)
GPGPU-Sim PTX: 19200000 instructions simulated : ctaid=(1,14,0) tid=(15,1,0)
GPGPU-Sim PTX: 19300000 instructions simulated : ctaid=(1,6,0) tid=(15,5,0)
GPGPU-Sim PTX: 19400000 instructions simulated : ctaid=(3,0,0) tid=(15,3,0)
GPGPU-Sim uArch: cycles simulated: 36000  inst.: 19393024 (ipc=538.7) sim_rate=668724 (inst/sec) elapsed = 0:0:00:29 / Thu Dec 14 14:41:43 2017
GPGPU-Sim PTX: 19500000 instructions simulated : ctaid=(2,6,0) tid=(15,7,0)
GPGPU-Sim PTX: 19600000 instructions simulated : ctaid=(7,8,0) tid=(15,5,0)
GPGPU-Sim PTX: 19700000 instructions simulated : ctaid=(7,6,0) tid=(15,3,0)
GPGPU-Sim PTX: 19800000 instructions simulated : ctaid=(5,4,0) tid=(15,5,0)
GPGPU-Sim PTX: 19900000 instructions simulated : ctaid=(3,5,0) tid=(15,1,0)
GPGPU-Sim PTX: 20000000 instructions simulated : ctaid=(1,14,0) tid=(15,5,0)
GPGPU-Sim PTX: 20100000 instructions simulated : ctaid=(4,3,0) tid=(15,5,0)
GPGPU-Sim PTX: 20200000 instructions simulated : ctaid=(2,0,0) tid=(15,7,0)
GPGPU-Sim uArch: cycles simulated: 37500  inst.: 20213920 (ipc=539.0) sim_rate=673797 (inst/sec) elapsed = 0:0:00:30 / Thu Dec 14 14:41:44 2017
GPGPU-Sim PTX: 20300000 instructions simulated : ctaid=(5,11,0) tid=(15,1,0)
GPGPU-Sim PTX: 20400000 instructions simulated : ctaid=(2,4,0) tid=(15,7,0)
GPGPU-Sim PTX: 20500000 instructions simulated : ctaid=(7,1,0) tid=(15,1,0)
GPGPU-Sim PTX: 20600000 instructions simulated : ctaid=(7,10,0) tid=(15,7,0)
GPGPU-Sim PTX: 20700000 instructions simulated : ctaid=(0,12,0) tid=(15,7,0)
GPGPU-Sim PTX: 20800000 instructions simulated : ctaid=(0,10,0) tid=(15,5,0)
GPGPU-Sim uArch: cycles simulated: 38500  inst.: 20791584 (ipc=540.0) sim_rate=670696 (inst/sec) elapsed = 0:0:00:31 / Thu Dec 14 14:41:45 2017
GPGPU-Sim PTX: 20900000 instructions simulated : ctaid=(6,8,0) tid=(15,7,0)
GPGPU-Sim PTX: 21000000 instructions simulated : ctaid=(2,0,0) tid=(15,5,0)
GPGPU-Sim PTX: 21100000 instructions simulated : ctaid=(4,10,0) tid=(15,3,0)
GPGPU-Sim PTX: 21200000 instructions simulated : ctaid=(5,5,0) tid=(15,1,0)
GPGPU-Sim PTX: 21300000 instructions simulated : ctaid=(1,5,0) tid=(15,7,0)
GPGPU-Sim PTX: 21400000 instructions simulated : ctaid=(0,14,0) tid=(15,3,0)
GPGPU-Sim PTX: 21500000 instructions simulated : ctaid=(1,13,0) tid=(15,7,0)
GPGPU-Sim PTX: 21600000 instructions simulated : ctaid=(2,0,0) tid=(15,3,0)
GPGPU-Sim uArch: cycles simulated: 40000  inst.: 21600384 (ipc=540.0) sim_rate=675012 (inst/sec) elapsed = 0:0:00:32 / Thu Dec 14 14:41:46 2017
GPGPU-Sim PTX: 21700000 instructions simulated : ctaid=(7,14,0) tid=(15,1,0)
GPGPU-Sim PTX: 21800000 instructions simulated : ctaid=(5,11,0) tid=(15,7,0)
GPGPU-Sim PTX: 21900000 instructions simulated : ctaid=(1,4,0) tid=(15,1,0)
GPGPU-Sim PTX: 22000000 instructions simulated : ctaid=(4,6,0) tid=(15,5,0)
GPGPU-Sim PTX: 22100000 instructions simulated : ctaid=(6,7,0) tid=(15,7,0)
GPGPU-Sim uArch: cycles simulated: 41000  inst.: 22171200 (ipc=540.8) sim_rate=671854 (inst/sec) elapsed = 0:0:00:33 / Thu Dec 14 14:41:47 2017
GPGPU-Sim PTX: 22200000 instructions simulated : ctaid=(1,6,0) tid=(15,5,0)
GPGPU-Sim PTX: 22300000 instructions simulated : ctaid=(3,6,0) tid=(15,3,0)
GPGPU-Sim PTX: 22400000 instructions simulated : ctaid=(3,6,0) tid=(15,1,0)
GPGPU-Sim PTX: 22500000 instructions simulated : ctaid=(3,5,0) tid=(15,1,0)
GPGPU-Sim PTX: 22600000 instructions simulated : ctaid=(7,14,0) tid=(15,1,0)
GPGPU-Sim PTX: 22700000 instructions simulated : ctaid=(7,8,0) tid=(15,5,0)
GPGPU-Sim PTX: 22800000 instructions simulated : ctaid=(7,1,0) tid=(15,5,0)
GPGPU-Sim PTX: 22900000 instructions simulated : ctaid=(5,2,0) tid=(15,3,0)
GPGPU-Sim PTX: 23000000 instructions simulated : ctaid=(1,3,0) tid=(15,5,0)
GPGPU-Sim uArch: cycles simulated: 42500  inst.: 22997536 (ipc=541.1) sim_rate=676398 (inst/sec) elapsed = 0:0:00:34 / Thu Dec 14 14:41:48 2017
GPGPU-Sim PTX: 23100000 instructions simulated : ctaid=(4,5,0) tid=(15,1,0)
GPGPU-Sim PTX: 23200000 instructions simulated : ctaid=(1,6,0) tid=(15,7,0)
GPGPU-Sim PTX: 23300000 instructions simulated : ctaid=(3,5,0) tid=(15,3,0)
GPGPU-Sim PTX: 23400000 instructions simulated : ctaid=(1,1,0) tid=(15,7,0)
GPGPU-Sim PTX: 23500000 instructions simulated : ctaid=(2,6,0) tid=(15,1,0)
GPGPU-Sim uArch: cycles simulated: 43500  inst.: 23563136 (ipc=541.7) sim_rate=673232 (inst/sec) elapsed = 0:0:00:35 / Thu Dec 14 14:41:49 2017
GPGPU-Sim PTX: 23600000 instructions simulated : ctaid=(7,13,0) tid=(15,3,0)
GPGPU-Sim PTX: 23700000 instructions simulated : ctaid=(5,10,0) tid=(15,5,0)
GPGPU-Sim PTX: 23800000 instructions simulated : ctaid=(0,0,0) tid=(15,7,0)
GPGPU-Sim PTX: 23900000 instructions simulated : ctaid=(0,4,0) tid=(15,5,0)
GPGPU-Sim PTX: 24000000 instructions simulated : ctaid=(0,13,0) tid=(15,5,0)
GPGPU-Sim PTX: 24100000 instructions simulated : ctaid=(3,7,0) tid=(15,1,0)
GPGPU-Sim PTX: 24200000 instructions simulated : ctaid=(0,4,0) tid=(15,7,0)
GPGPU-Sim PTX: 24300000 instructions simulated : ctaid=(2,12,0) tid=(15,1,0)
GPGPU-Sim uArch: cycles simulated: 45000  inst.: 24350368 (ipc=541.1) sim_rate=676399 (inst/sec) elapsed = 0:0:00:36 / Thu Dec 14 14:41:50 2017
GPGPU-Sim PTX: 24400000 instructions simulated : ctaid=(7,11,0) tid=(15,7,0)
GPGPU-Sim PTX: 24500000 instructions simulated : ctaid=(0,12,0) tid=(15,7,0)
GPGPU-Sim PTX: 24600000 instructions simulated : ctaid=(1,12,0) tid=(15,1,0)
GPGPU-Sim PTX: 24700000 instructions simulated : ctaid=(3,8,0) tid=(15,7,0)
GPGPU-Sim PTX: 24800000 instructions simulated : ctaid=(4,11,0) tid=(15,1,0)
GPGPU-Sim PTX: 24900000 instructions simulated : ctaid=(6,6,0) tid=(15,3,0)
GPGPU-Sim uArch: cycles simulated: 46000  inst.: 24884640 (ipc=541.0) sim_rate=672557 (inst/sec) elapsed = 0:0:00:37 / Thu Dec 14 14:41:51 2017
GPGPU-Sim PTX: 25000000 instructions simulated : ctaid=(1,11,0) tid=(15,1,0)
GPGPU-Sim PTX: 25100000 instructions simulated : ctaid=(7,8,0) tid=(15,3,0)
GPGPU-Sim PTX: 25200000 instructions simulated : ctaid=(6,12,0) tid=(15,1,0)
GPGPU-Sim PTX: 25300000 instructions simulated : ctaid=(3,13,0) tid=(15,1,0)
GPGPU-Sim PTX: 25400000 instructions simulated : ctaid=(7,10,0) tid=(15,1,0)
GPGPU-Sim PTX: 25500000 instructions simulated : ctaid=(0,1,0) tid=(15,3,0)
GPGPU-Sim PTX: 25600000 instructions simulated : ctaid=(6,4,0) tid=(15,7,0)
GPGPU-Sim PTX: 25700000 instructions simulated : ctaid=(3,1,0) tid=(15,7,0)
GPGPU-Sim uArch: cycles simulated: 47500  inst.: 25747168 (ipc=542.0) sim_rate=677557 (inst/sec) elapsed = 0:0:00:38 / Thu Dec 14 14:41:52 2017
GPGPU-Sim PTX: 25800000 instructions simulated : ctaid=(6,4,0) tid=(15,3,0)
GPGPU-Sim PTX: 25900000 instructions simulated : ctaid=(6,6,0) tid=(15,5,0)
GPGPU-Sim PTX: 26000000 instructions simulated : ctaid=(0,14,0) tid=(15,3,0)
GPGPU-Sim PTX: 26100000 instructions simulated : ctaid=(3,4,0) tid=(15,7,0)
GPGPU-Sim PTX: 26200000 instructions simulated : ctaid=(7,12,0) tid=(15,7,0)
GPGPU-Sim uArch: cycles simulated: 48500  inst.: 26247840 (ipc=541.2) sim_rate=673021 (inst/sec) elapsed = 0:0:00:39 / Thu Dec 14 14:41:53 2017
GPGPU-Sim PTX: 26300000 instructions simulated : ctaid=(3,3,0) tid=(15,7,0)
GPGPU-Sim PTX: 26400000 instructions simulated : ctaid=(0,6,0) tid=(15,5,0)
GPGPU-Sim PTX: 26500000 instructions simulated : ctaid=(6,4,0) tid=(15,5,0)
GPGPU-Sim PTX: 26600000 instructions simulated : ctaid=(3,6,0) tid=(15,5,0)
GPGPU-Sim PTX: 26700000 instructions simulated : ctaid=(5,9,0) tid=(15,1,0)
GPGPU-Sim PTX: 26800000 instructions simulated : ctaid=(6,12,0) tid=(15,3,0)
GPGPU-Sim PTX: 26900000 instructions simulated : ctaid=(2,2,0) tid=(15,1,0)
GPGPU-Sim PTX: 27000000 instructions simulated : ctaid=(0,9,0) tid=(15,3,0)
GPGPU-Sim PTX: 27100000 instructions simulated : ctaid=(4,7,0) tid=(15,1,0)
GPGPU-Sim uArch: cycles simulated: 50000  inst.: 27091040 (ipc=541.8) sim_rate=677276 (inst/sec) elapsed = 0:0:00:40 / Thu Dec 14 14:41:54 2017
GPGPU-Sim PTX: 27200000 instructions simulated : ctaid=(0,3,0) tid=(15,7,0)
GPGPU-Sim PTX: 27300000 instructions simulated : ctaid=(4,4,0) tid=(15,3,0)
GPGPU-Sim PTX: 27400000 instructions simulated : ctaid=(4,9,0) tid=(15,7,0)
GPGPU-Sim PTX: 27500000 instructions simulated : ctaid=(4,0,0) tid=(15,7,0)
GPGPU-Sim PTX: 27600000 instructions simulated : ctaid=(0,10,0) tid=(15,5,0)
GPGPU-Sim uArch: cycles simulated: 51000  inst.: 27647744 (ipc=542.1) sim_rate=674335 (inst/sec) elapsed = 0:0:00:41 / Thu Dec 14 14:41:55 2017
GPGPU-Sim PTX: 27700000 instructions simulated : ctaid=(5,6,0) tid=(15,7,0)
GPGPU-Sim PTX: 27800000 instructions simulated : ctaid=(5,0,0) tid=(15,5,0)
GPGPU-Sim PTX: 27900000 instructions simulated : ctaid=(4,8,0) tid=(15,3,0)
GPGPU-Sim PTX: 28000000 instructions simulated : ctaid=(0,10,0) tid=(15,7,0)
GPGPU-Sim PTX: 28100000 instructions simulated : ctaid=(3,6,0) tid=(15,1,0)
GPGPU-Sim PTX: 28200000 instructions simulated : ctaid=(2,14,0) tid=(15,1,0)
GPGPU-Sim PTX: 28300000 instructions simulated : ctaid=(5,5,0) tid=(15,1,0)
GPGPU-Sim PTX: 28400000 instructions simulated : ctaid=(0,12,0) tid=(15,3,0)
GPGPU-Sim uArch: cycles simulated: 52500  inst.: 28431264 (ipc=541.5) sim_rate=676934 (inst/sec) elapsed = 0:0:00:42 / Thu Dec 14 14:41:56 2017
GPGPU-Sim PTX: 28500000 instructions simulated : ctaid=(6,6,0) tid=(15,3,0)
GPGPU-Sim PTX: 28600000 instructions simulated : ctaid=(2,10,0) tid=(15,5,0)
GPGPU-Sim PTX: 28700000 instructions simulated : ctaid=(1,3,0) tid=(15,7,0)
GPGPU-Sim PTX: 28800000 instructions simulated : ctaid=(6,10,0) tid=(15,5,0)
GPGPU-Sim PTX: 28900000 instructions simulated : ctaid=(7,1,0) tid=(15,5,0)
GPGPU-Sim PTX: 29000000 instructions simulated : ctaid=(5,3,0) tid=(15,3,0)
GPGPU-Sim uArch: cycles simulated: 53500  inst.: 28999904 (ipc=542.1) sim_rate=674416 (inst/sec) elapsed = 0:0:00:43 / Thu Dec 14 14:41:57 2017
GPGPU-Sim PTX: 29100000 instructions simulated : ctaid=(5,12,0) tid=(15,5,0)
GPGPU-Sim PTX: 29200000 instructions simulated : ctaid=(2,4,0) tid=(15,5,0)
GPGPU-Sim PTX: 29300000 instructions simulated : ctaid=(5,14,0) tid=(15,3,0)
GPGPU-Sim PTX: 29400000 instructions simulated : ctaid=(1,10,0) tid=(15,7,0)
GPGPU-Sim PTX: 29500000 instructions simulated : ctaid=(4,9,0) tid=(15,7,0)
GPGPU-Sim PTX: 29600000 instructions simulated : ctaid=(5,8,0) tid=(15,5,0)
GPGPU-Sim PTX: 29700000 instructions simulated : ctaid=(3,11,0) tid=(15,1,0)
GPGPU-Sim PTX: 29800000 instructions simulated : ctaid=(1,4,0) tid=(15,7,0)
GPGPU-Sim uArch: cycles simulated: 55000  inst.: 29829536 (ipc=542.4) sim_rate=677944 (inst/sec) elapsed = 0:0:00:44 / Thu Dec 14 14:41:58 2017
GPGPU-Sim PTX: 29900000 instructions simulated : ctaid=(5,4,0) tid=(15,1,0)
GPGPU-Sim PTX: 30000000 instructions simulated : ctaid=(2,12,0) tid=(15,7,0)
GPGPU-Sim PTX: 30100000 instructions simulated : ctaid=(4,12,0) tid=(15,5,0)
GPGPU-Sim PTX: 30200000 instructions simulated : ctaid=(2,0,0) tid=(15,7,0)
GPGPU-Sim PTX: 30300000 instructions simulated : ctaid=(4,0,0) tid=(15,5,0)
GPGPU-Sim PTX: 30400000 instructions simulated : ctaid=(3,6,0) tid=(15,1,0)
GPGPU-Sim uArch: cycles simulated: 56000  inst.: 30398592 (ipc=542.8) sim_rate=675524 (inst/sec) elapsed = 0:0:00:45 / Thu Dec 14 14:41:59 2017
GPGPU-Sim PTX: 30500000 instructions simulated : ctaid=(4,10,0) tid=(15,5,0)
GPGPU-Sim PTX: 30600000 instructions simulated : ctaid=(3,5,0) tid=(15,3,0)
GPGPU-Sim PTX: 30700000 instructions simulated : ctaid=(1,4,0) tid=(15,3,0)
GPGPU-Sim PTX: 30800000 instructions simulated : ctaid=(4,2,0) tid=(15,3,0)
GPGPU-Sim PTX: 30900000 instructions simulated : ctaid=(2,8,0) tid=(15,5,0)
GPGPU-Sim PTX: 31000000 instructions simulated : ctaid=(3,8,0) tid=(15,5,0)
GPGPU-Sim PTX: 31100000 instructions simulated : ctaid=(7,11,0) tid=(15,1,0)
GPGPU-Sim PTX: 31200000 instructions simulated : ctaid=(1,0,0) tid=(15,5,0)
GPGPU-Sim uArch: cycles simulated: 57500  inst.: 31193440 (ipc=542.5) sim_rate=678118 (inst/sec) elapsed = 0:0:00:46 / Thu Dec 14 14:42:00 2017
GPGPU-Sim PTX: 31300000 instructions simulated : ctaid=(5,5,0) tid=(15,5,0)
GPGPU-Sim PTX: 31400000 instructions simulated : ctaid=(0,8,0) tid=(15,7,0)
GPGPU-Sim PTX: 31500000 instructions simulated : ctaid=(6,11,0) tid=(15,7,0)
GPGPU-Sim PTX: 31600000 instructions simulated : ctaid=(1,10,0) tid=(15,5,0)
GPGPU-Sim PTX: 31700000 instructions simulated : ctaid=(4,8,0) tid=(15,5,0)
GPGPU-Sim uArch: cycles simulated: 58500  inst.: 31754944 (ipc=542.8) sim_rate=675637 (inst/sec) elapsed = 0:0:00:47 / Thu Dec 14 14:42:01 2017
GPGPU-Sim PTX: 31800000 instructions simulated : ctaid=(4,8,0) tid=(15,3,0)
GPGPU-Sim PTX: 31900000 instructions simulated : ctaid=(5,10,0) tid=(15,7,0)
GPGPU-Sim PTX: 32000000 instructions simulated : ctaid=(5,7,0) tid=(15,5,0)
GPGPU-Sim PTX: 32100000 instructions simulated : ctaid=(2,9,0) tid=(15,5,0)
GPGPU-Sim PTX: 32200000 instructions simulated : ctaid=(2,0,0) tid=(15,3,0)
GPGPU-Sim PTX: 32300000 instructions simulated : ctaid=(7,13,0) tid=(15,3,0)
GPGPU-Sim PTX: 32400000 instructions simulated : ctaid=(1,2,0) tid=(15,3,0)
GPGPU-Sim PTX: 32500000 instructions simulated : ctaid=(4,11,0) tid=(15,5,0)
GPGPU-Sim PTX: 32600000 instructions simulated : ctaid=(1,11,0) tid=(15,1,0)
GPGPU-Sim uArch: cycles simulated: 60000  inst.: 32594464 (ipc=543.2) sim_rate=679051 (inst/sec) elapsed = 0:0:00:48 / Thu Dec 14 14:42:02 2017
GPGPU-Sim PTX: 32700000 instructions simulated : ctaid=(0,10,0) tid=(15,5,0)
GPGPU-Sim PTX: 32800000 instructions simulated : ctaid=(1,7,0) tid=(15,5,0)
GPGPU-Sim PTX: 32900000 instructions simulated : ctaid=(6,13,0) tid=(15,5,0)
GPGPU-Sim PTX: 33000000 instructions simulated : ctaid=(7,9,0) tid=(15,3,0)
GPGPU-Sim PTX: 33100000 instructions simulated : ctaid=(4,7,0) tid=(15,7,0)
GPGPU-Sim uArch: cycles simulated: 61000  inst.: 33099968 (ipc=542.6) sim_rate=675509 (inst/sec) elapsed = 0:0:00:49 / Thu Dec 14 14:42:03 2017
GPGPU-Sim PTX: 33200000 instructions simulated : ctaid=(0,7,0) tid=(15,1,0)
GPGPU-Sim PTX: 33300000 instructions simulated : ctaid=(1,10,0) tid=(15,5,0)
GPGPU-Sim PTX: 33400000 instructions simulated : ctaid=(0,7,0) tid=(15,7,0)
GPGPU-Sim PTX: 33500000 instructions simulated : ctaid=(7,11,0) tid=(15,3,0)
GPGPU-Sim PTX: 33600000 instructions simulated : ctaid=(0,12,0) tid=(15,7,0)
GPGPU-Sim uArch: cycles simulated: 62000  inst.: 33669440 (ipc=543.1) sim_rate=673388 (inst/sec) elapsed = 0:0:00:50 / Thu Dec 14 14:42:04 2017
GPGPU-Sim PTX: 33700000 instructions simulated : ctaid=(0,12,0) tid=(15,5,0)
GPGPU-Sim PTX: 33800000 instructions simulated : ctaid=(7,0,0) tid=(15,1,0)
GPGPU-Sim PTX: 33900000 instructions simulated : ctaid=(4,4,0) tid=(15,7,0)
GPGPU-Sim PTX: 34000000 instructions simulated : ctaid=(7,11,0) tid=(15,1,0)
GPGPU-Sim PTX: 34100000 instructions simulated : ctaid=(3,13,0) tid=(15,7,0)
GPGPU-Sim PTX: 34200000 instructions simulated : ctaid=(5,10,0) tid=(15,5,0)
GPGPU-Sim PTX: 34300000 instructions simulated : ctaid=(4,6,0) tid=(15,5,0)
GPGPU-Sim PTX: 34400000 instructions simulated : ctaid=(6,8,0) tid=(15,1,0)
GPGPU-Sim PTX: 34500000 instructions simulated : ctaid=(1,5,0) tid=(15,1,0)
GPGPU-Sim uArch: cycles simulated: 63500  inst.: 34499072 (ipc=543.3) sim_rate=676452 (inst/sec) elapsed = 0:0:00:51 / Thu Dec 14 14:42:05 2017
GPGPU-Sim PTX: 34600000 instructions simulated : ctaid=(6,9,0) tid=(15,5,0)
GPGPU-Sim PTX: 34700000 instructions simulated : ctaid=(5,5,0) tid=(15,7,0)
GPGPU-Sim PTX: 34800000 instructions simulated : ctaid=(1,11,0) tid=(15,5,0)
GPGPU-Sim PTX: 34900000 instructions simulated : ctaid=(3,7,0) tid=(15,7,0)
GPGPU-Sim PTX: 35000000 instructions simulated : ctaid=(4,14,0) tid=(15,5,0)
GPGPU-Sim uArch: cycles simulated: 64500  inst.: 35068992 (ipc=543.7) sim_rate=674403 (inst/sec) elapsed = 0:0:00:52 / Thu Dec 14 14:42:06 2017
GPGPU-Sim PTX: 35100000 instructions simulated : ctaid=(7,5,0) tid=(15,5,0)
GPGPU-Sim PTX: 35200000 instructions simulated : ctaid=(6,14,0) tid=(15,7,0)
GPGPU-Sim PTX: 35300000 instructions simulated : ctaid=(5,6,0) tid=(15,7,0)
GPGPU-Sim PTX: 35400000 instructions simulated : ctaid=(4,1,0) tid=(15,3,0)
GPGPU-Sim PTX: 35500000 instructions simulated : ctaid=(4,3,0) tid=(15,5,0)
GPGPU-Sim PTX: 35600000 instructions simulated : ctaid=(6,12,0) tid=(15,3,0)
GPGPU-Sim PTX: 35700000 instructions simulated : ctaid=(7,7,0) tid=(15,5,0)
GPGPU-Sim PTX: 35800000 instructions simulated : ctaid=(4,12,0) tid=(15,7,0)
GPGPU-Sim uArch: cycles simulated: 66000  inst.: 35853536 (ipc=543.2) sim_rate=676481 (inst/sec) elapsed = 0:0:00:53 / Thu Dec 14 14:42:07 2017
GPGPU-Sim PTX: 35900000 instructions simulated : ctaid=(6,13,0) tid=(15,5,0)
GPGPU-Sim PTX: 36000000 instructions simulated : ctaid=(1,9,0) tid=(15,3,0)
GPGPU-Sim PTX: 36100000 instructions simulated : ctaid=(5,12,0) tid=(15,1,0)
GPGPU-Sim PTX: 36200000 instructions simulated : ctaid=(5,6,0) tid=(15,5,0)
GPGPU-Sim PTX: 36300000 instructions simulated : ctaid=(7,1,0) tid=(15,5,0)
GPGPU-Sim PTX: 36400000 instructions simulated : ctaid=(7,7,0) tid=(15,1,0)
GPGPU-Sim uArch: cycles simulated: 67000  inst.: 36420160 (ipc=543.6) sim_rate=674447 (inst/sec) elapsed = 0:0:00:54 / Thu Dec 14 14:42:08 2017
GPGPU-Sim PTX: 36500000 instructions simulated : ctaid=(4,0,0) tid=(15,3,0)
GPGPU-Sim PTX: 36600000 instructions simulated : ctaid=(7,5,0) tid=(15,1,0)
GPGPU-Sim PTX: 36700000 instructions simulated : ctaid=(6,7,0) tid=(15,3,0)
GPGPU-Sim PTX: 36800000 instructions simulated : ctaid=(3,3,0) tid=(15,1,0)
GPGPU-Sim PTX: 36900000 instructions simulated : ctaid=(7,6,0) tid=(15,3,0)
GPGPU-Sim uArch: cycles simulated: 68000  inst.: 36961504 (ipc=543.6) sim_rate=672027 (inst/sec) elapsed = 0:0:00:55 / Thu Dec 14 14:42:09 2017
GPGPU-Sim PTX: 37000000 instructions simulated : ctaid=(2,2,0) tid=(15,1,0)
GPGPU-Sim PTX: 37100000 instructions simulated : ctaid=(3,8,0) tid=(15,5,0)
GPGPU-Sim PTX: 37200000 instructions simulated : ctaid=(0,6,0) tid=(15,3,0)
GPGPU-Sim PTX: 37300000 instructions simulated : ctaid=(2,2,0) tid=(15,1,0)
GPGPU-Sim PTX: 37400000 instructions simulated : ctaid=(1,3,0) tid=(15,3,0)
GPGPU-Sim PTX: 37500000 instructions simulated : ctaid=(0,3,0) tid=(15,3,0)
GPGPU-Sim PTX: 37600000 instructions simulated : ctaid=(4,8,0) tid=(15,5,0)
GPGPU-Sim PTX: 37700000 instructions simulated : ctaid=(2,2,0) tid=(15,1,0)
GPGPU-Sim uArch: cycles simulated: 69500  inst.: 37766400 (ipc=543.4) sim_rate=674400 (inst/sec) elapsed = 0:0:00:56 / Thu Dec 14 14:42:10 2017
GPGPU-Sim PTX: 37800000 instructions simulated : ctaid=(2,1,0) tid=(15,7,0)
GPGPU-Sim PTX: 37900000 instructions simulated : ctaid=(1,1,0) tid=(15,7,0)
GPGPU-Sim PTX: 38000000 instructions simulated : ctaid=(0,11,0) tid=(15,3,0)
GPGPU-Sim PTX: 38100000 instructions simulated : ctaid=(5,13,0) tid=(15,5,0)
GPGPU-Sim PTX: 38200000 instructions simulated : ctaid=(5,6,0) tid=(15,3,0)
GPGPU-Sim PTX: 38300000 instructions simulated : ctaid=(1,10,0) tid=(15,3,0)
GPGPU-Sim uArch: cycles simulated: 70500  inst.: 38338688 (ipc=543.8) sim_rate=672608 (inst/sec) elapsed = 0:0:00:57 / Thu Dec 14 14:42:11 2017
GPGPU-Sim PTX: 38400000 instructions simulated : ctaid=(3,14,0) tid=(15,5,0)
GPGPU-Sim PTX: 38500000 instructions simulated : ctaid=(6,9,0) tid=(15,1,0)
GPGPU-Sim PTX: 38600000 instructions simulated : ctaid=(0,4,0) tid=(15,3,0)
GPGPU-Sim PTX: 38700000 instructions simulated : ctaid=(4,10,0) tid=(15,3,0)
GPGPU-Sim PTX: 38800000 instructions simulated : ctaid=(2,0,0) tid=(15,7,0)
GPGPU-Sim PTX: 38900000 instructions simulated : ctaid=(1,1,0) tid=(15,7,0)
GPGPU-Sim PTX: 39000000 instructions simulated : ctaid=(5,6,0) tid=(15,1,0)
GPGPU-Sim PTX: 39100000 instructions simulated : ctaid=(5,6,0) tid=(15,1,0)
GPGPU-Sim uArch: cycles simulated: 72000  inst.: 39162016 (ipc=543.9) sim_rate=675207 (inst/sec) elapsed = 0:0:00:58 / Thu Dec 14 14:42:12 2017
GPGPU-Sim PTX: 39200000 instructions simulated : ctaid=(6,0,0) tid=(15,7,0)
GPGPU-Sim PTX: 39300000 instructions simulated : ctaid=(1,14,0) tid=(15,1,0)
GPGPU-Sim PTX: 39400000 instructions simulated : ctaid=(6,14,0) tid=(15,3,0)
GPGPU-Sim PTX: 39500000 instructions simulated : ctaid=(6,0,0) tid=(15,7,0)
GPGPU-Sim PTX: 39600000 instructions simulated : ctaid=(6,6,0) tid=(15,1,0)
GPGPU-Sim PTX: 39700000 instructions simulated : ctaid=(7,5,0) tid=(15,3,0)
GPGPU-Sim uArch: cycles simulated: 73000  inst.: 39732704 (ipc=544.3) sim_rate=673435 (inst/sec) elapsed = 0:0:00:59 / Thu Dec 14 14:42:13 2017
GPGPU-Sim PTX: 39800000 instructions simulated : ctaid=(0,1,0) tid=(15,1,0)
GPGPU-Sim PTX: 39900000 instructions simulated : ctaid=(7,7,0) tid=(15,5,0)
GPGPU-Sim PTX: 40000000 instructions simulated : ctaid=(1,8,0) tid=(15,3,0)
GPGPU-Sim PTX: 40100000 instructions simulated : ctaid=(7,1,0) tid=(15,3,0)
GPGPU-Sim PTX: 40200000 instructions simulated : ctaid=(6,5,0) tid=(15,3,0)
GPGPU-Sim PTX: 40300000 instructions simulated : ctaid=(3,5,0) tid=(15,7,0)
GPGPU-Sim PTX: 40400000 instructions simulated : ctaid=(0,9,0) tid=(15,5,0)
GPGPU-Sim PTX: 40500000 instructions simulated : ctaid=(6,6,0) tid=(15,1,0)
GPGPU-Sim uArch: cycles simulated: 74500  inst.: 40522432 (ipc=543.9) sim_rate=675373 (inst/sec) elapsed = 0:0:01:00 / Thu Dec 14 14:42:14 2017
GPGPU-Sim PTX: 40600000 instructions simulated : ctaid=(7,2,0) tid=(15,1,0)
GPGPU-Sim PTX: 40700000 instructions simulated : ctaid=(4,8,0) tid=(15,7,0)
GPGPU-Sim PTX: 40800000 instructions simulated : ctaid=(5,14,0) tid=(15,1,0)
GPGPU-Sim PTX: 40900000 instructions simulated : ctaid=(4,4,0) tid=(15,7,0)
GPGPU-Sim PTX: 41000000 instructions simulated : ctaid=(6,2,0) tid=(15,3,0)
GPGPU-Sim PTX: 41100000 instructions simulated : ctaid=(6,6,0) tid=(15,7,0)
GPGPU-Sim uArch: cycles simulated: 75500  inst.: 41089760 (ipc=544.2) sim_rate=673602 (inst/sec) elapsed = 0:0:01:01 / Thu Dec 14 14:42:15 2017
GPGPU-Sim PTX: 41200000 instructions simulated : ctaid=(5,11,0) tid=(15,5,0)
GPGPU-Sim PTX: 41300000 instructions simulated : ctaid=(3,9,0) tid=(15,1,0)
GPGPU-Sim PTX: 41400000 instructions simulated : ctaid=(1,5,0) tid=(15,5,0)
GPGPU-Sim PTX: 41500000 instructions simulated : ctaid=(6,11,0) tid=(15,1,0)
GPGPU-Sim PTX: 41600000 instructions simulated : ctaid=(0,8,0) tid=(15,5,0)
GPGPU-Sim PTX: 41700000 instructions simulated : ctaid=(3,5,0) tid=(15,7,0)
GPGPU-Sim PTX: 41800000 instructions simulated : ctaid=(0,9,0) tid=(15,7,0)
GPGPU-Sim PTX: 41900000 instructions simulated : ctaid=(7,7,0) tid=(15,3,0)
GPGPU-Sim uArch: cycles simulated: 77000  inst.: 41914816 (ipc=544.3) sim_rate=676045 (inst/sec) elapsed = 0:0:01:02 / Thu Dec 14 14:42:16 2017
GPGPU-Sim PTX: 42000000 instructions simulated : ctaid=(7,14,0) tid=(15,1,0)
GPGPU-Sim PTX: 42100000 instructions simulated : ctaid=(3,6,0) tid=(15,7,0)
GPGPU-Sim PTX: 42200000 instructions simulated : ctaid=(1,11,0) tid=(15,3,0)
GPGPU-Sim PTX: 42300000 instructions simulated : ctaid=(1,0,0) tid=(15,1,0)
GPGPU-Sim PTX: 42400000 instructions simulated : ctaid=(4,4,0) tid=(15,3,0)
GPGPU-Sim uArch: cycles simulated: 78000  inst.: 42388608 (ipc=543.4) sim_rate=672835 (inst/sec) elapsed = 0:0:01:03 / Thu Dec 14 14:42:17 2017
GPGPU-Sim PTX: 42500000 instructions simulated : ctaid=(3,9,0) tid=(15,5,0)
GPGPU-Sim PTX: 42600000 instructions simulated : ctaid=(4,7,0) tid=(15,5,0)
GPGPU-Sim PTX: 42700000 instructions simulated : ctaid=(2,12,0) tid=(15,3,0)
GPGPU-Sim PTX: 42800000 instructions simulated : ctaid=(2,10,0) tid=(15,1,0)
GPGPU-Sim PTX: 42900000 instructions simulated : ctaid=(7,5,0) tid=(15,1,0)
GPGPU-Sim uArch: cycles simulated: 79000  inst.: 42969280 (ipc=543.9) sim_rate=671395 (inst/sec) elapsed = 0:0:01:04 / Thu Dec 14 14:42:18 2017
GPGPU-Sim PTX: 43000000 instructions simulated : ctaid=(5,1,0) tid=(15,7,0)
GPGPU-Sim PTX: 43100000 instructions simulated : ctaid=(0,13,0) tid=(15,3,0)
GPGPU-Sim PTX: 43200000 instructions simulated : ctaid=(0,9,0) tid=(15,7,0)
GPGPU-Sim PTX: 43300000 instructions simulated : ctaid=(1,5,0) tid=(15,1,0)
GPGPU-Sim PTX: 43400000 instructions simulated : ctaid=(0,6,0) tid=(15,5,0)
GPGPU-Sim PTX: 43500000 instructions simulated : ctaid=(7,2,0) tid=(15,5,0)
GPGPU-Sim PTX: 43600000 instructions simulated : ctaid=(3,3,0) tid=(15,7,0)
GPGPU-Sim PTX: 43700000 instructions simulated : ctaid=(1,12,0) tid=(15,7,0)
GPGPU-Sim PTX: 43800000 instructions simulated : ctaid=(7,1,0) tid=(15,1,0)
GPGPU-Sim uArch: cycles simulated: 80500  inst.: 43792640 (ipc=544.0) sim_rate=673732 (inst/sec) elapsed = 0:0:01:05 / Thu Dec 14 14:42:19 2017
GPGPU-Sim PTX: 43900000 instructions simulated : ctaid=(0,4,0) tid=(15,3,0)
GPGPU-Sim PTX: 44000000 instructions simulated : ctaid=(1,14,0) tid=(15,7,0)
GPGPU-Sim PTX: 44100000 instructions simulated : ctaid=(3,8,0) tid=(15,1,0)
GPGPU-Sim PTX: 44200000 instructions simulated : ctaid=(5,2,0) tid=(15,3,0)
GPGPU-Sim PTX: 44300000 instructions simulated : ctaid=(6,7,0) tid=(15,1,0)
GPGPU-Sim uArch: cycles simulated: 81500  inst.: 44363584 (ipc=544.3) sim_rate=672175 (inst/sec) elapsed = 0:0:01:06 / Thu Dec 14 14:42:20 2017
GPGPU-Sim PTX: 44400000 instructions simulated : ctaid=(3,2,0) tid=(15,3,0)
GPGPU-Sim PTX: 44500000 instructions simulated : ctaid=(1,13,0) tid=(15,5,0)
GPGPU-Sim PTX: 44600000 instructions simulated : ctaid=(4,14,0) tid=(15,7,0)
GPGPU-Sim PTX: 44700000 instructions simulated : ctaid=(2,2,0) tid=(15,5,0)
GPGPU-Sim PTX: 44800000 instructions simulated : ctaid=(5,3,0) tid=(15,5,0)
GPGPU-Sim PTX: 44900000 instructions simulated : ctaid=(1,0,0) tid=(15,1,0)
GPGPU-Sim PTX: 45000000 instructions simulated : ctaid=(3,1,0) tid=(15,5,0)
GPGPU-Sim PTX: 45100000 instructions simulated : ctaid=(2,10,0) tid=(15,1,0)
GPGPU-Sim uArch: cycles simulated: 83000  inst.: 45135712 (ipc=543.8) sim_rate=673667 (inst/sec) elapsed = 0:0:01:07 / Thu Dec 14 14:42:21 2017
GPGPU-Sim PTX: 45200000 instructions simulated : ctaid=(7,12,0) tid=(15,7,0)
GPGPU-Sim PTX: 45300000 instructions simulated : ctaid=(2,14,0) tid=(15,5,0)
GPGPU-Sim PTX: 45400000 instructions simulated : ctaid=(3,11,0) tid=(15,1,0)
GPGPU-Sim PTX: 45500000 instructions simulated : ctaid=(7,0,0) tid=(15,1,0)
GPGPU-Sim PTX: 45600000 instructions simulated : ctaid=(0,7,0) tid=(15,3,0)
GPGPU-Sim PTX: 45700000 instructions simulated : ctaid=(4,7,0) tid=(15,5,0)
GPGPU-Sim uArch: cycles simulated: 84000  inst.: 45705888 (ipc=544.1) sim_rate=672145 (inst/sec) elapsed = 0:0:01:08 / Thu Dec 14 14:42:22 2017
GPGPU-Sim PTX: 45800000 instructions simulated : ctaid=(3,5,0) tid=(15,7,0)
GPGPU-Sim PTX: 45900000 instructions simulated : ctaid=(6,11,0) tid=(15,5,0)
GPGPU-Sim PTX: 46000000 instructions simulated : ctaid=(5,12,0) tid=(15,1,0)
GPGPU-Sim PTX: 46100000 instructions simulated : ctaid=(2,14,0) tid=(15,1,0)
GPGPU-Sim PTX: 46200000 instructions simulated : ctaid=(5,11,0) tid=(15,5,0)
GPGPU-Sim uArch: cycles simulated: 85000  inst.: 46251648 (ipc=544.1) sim_rate=670313 (inst/sec) elapsed = 0:0:01:09 / Thu Dec 14 14:42:23 2017
GPGPU-Sim PTX: 46300000 instructions simulated : ctaid=(7,11,0) tid=(15,5,0)
GPGPU-Sim PTX: 46400000 instructions simulated : ctaid=(4,2,0) tid=(15,7,0)
GPGPU-Sim PTX: 46500000 instructions simulated : ctaid=(3,5,0) tid=(15,3,0)
GPGPU-Sim PTX: 46600000 instructions simulated : ctaid=(0,14,0) tid=(15,7,0)
GPGPU-Sim PTX: 46700000 instructions simulated : ctaid=(3,8,0) tid=(15,5,0)
GPGPU-Sim PTX: 46800000 instructions simulated : ctaid=(2,14,0) tid=(15,5,0)
GPGPU-Sim uArch: cycles simulated: 86000  inst.: 46821536 (ipc=544.4) sim_rate=668879 (inst/sec) elapsed = 0:0:01:10 / Thu Dec 14 14:42:24 2017
GPGPU-Sim PTX: 46900000 instructions simulated : ctaid=(7,12,0) tid=(15,5,0)
GPGPU-Sim PTX: 47000000 instructions simulated : ctaid=(1,7,0) tid=(15,1,0)
GPGPU-Sim PTX: 47100000 instructions simulated : ctaid=(2,8,0) tid=(15,1,0)
GPGPU-Sim PTX: 47200000 instructions simulated : ctaid=(0,6,0) tid=(15,5,0)
GPGPU-Sim PTX: 47300000 instructions simulated : ctaid=(4,1,0) tid=(15,3,0)
GPGPU-Sim PTX: 47400000 instructions simulated : ctaid=(7,1,0) tid=(15,5,0)
GPGPU-Sim PTX: 47500000 instructions simulated : ctaid=(5,5,0) tid=(15,5,0)
GPGPU-Sim PTX: 47600000 instructions simulated : ctaid=(2,4,0) tid=(15,7,0)
GPGPU-Sim uArch: cycles simulated: 87500  inst.: 47598048 (ipc=544.0) sim_rate=670395 (inst/sec) elapsed = 0:0:01:11 / Thu Dec 14 14:42:25 2017
GPGPU-Sim PTX: 47700000 instructions simulated : ctaid=(4,14,0) tid=(15,5,0)
GPGPU-Sim PTX: 47800000 instructions simulated : ctaid=(2,1,0) tid=(15,1,0)
GPGPU-Sim PTX: 47900000 instructions simulated : ctaid=(4,2,0) tid=(15,5,0)
GPGPU-Sim PTX: 48000000 instructions simulated : ctaid=(1,14,0) tid=(15,5,0)
GPGPU-Sim PTX: 48100000 instructions simulated : ctaid=(2,11,0) tid=(15,5,0)
GPGPU-Sim uArch: cycles simulated: 88500  inst.: 48148576 (ipc=544.1) sim_rate=668730 (inst/sec) elapsed = 0:0:01:12 / Thu Dec 14 14:42:26 2017
GPGPU-Sim PTX: 48200000 instructions simulated : ctaid=(5,3,0) tid=(15,5,0)
GPGPU-Sim PTX: 48300000 instructions simulated : ctaid=(3,3,0) tid=(15,7,0)
GPGPU-Sim PTX: 48400000 instructions simulated : ctaid=(0,7,0) tid=(15,1,0)
GPGPU-Sim PTX: 48500000 instructions simulated : ctaid=(3,12,0) tid=(15,1,0)
GPGPU-Sim PTX: 48600000 instructions simulated : ctaid=(4,3,0) tid=(15,5,0)
GPGPU-Sim PTX: 48700000 instructions simulated : ctaid=(5,0,0) tid=(15,3,0)
GPGPU-Sim uArch: cycles simulated: 89500  inst.: 48706368 (ipc=544.2) sim_rate=667210 (inst/sec) elapsed = 0:0:01:13 / Thu Dec 14 14:42:27 2017
GPGPU-Sim PTX: 48800000 instructions simulated : ctaid=(6,2,0) tid=(15,1,0)
GPGPU-Sim PTX: 48900000 instructions simulated : ctaid=(4,13,0) tid=(15,1,0)
GPGPU-Sim PTX: 49000000 instructions simulated : ctaid=(0,7,0) tid=(15,1,0)
GPGPU-Sim PTX: 49100000 instructions simulated : ctaid=(3,3,0) tid=(15,7,0)
GPGPU-Sim PTX: 49200000 instructions simulated : ctaid=(4,5,0) tid=(15,1,0)
GPGPU-Sim uArch: cycles simulated: 90500  inst.: 49272064 (ipc=544.4) sim_rate=665838 (inst/sec) elapsed = 0:0:01:14 / Thu Dec 14 14:42:28 2017
GPGPU-Sim PTX: 49300000 instructions simulated : ctaid=(5,8,0) tid=(15,3,0)
GPGPU-Sim PTX: 49400000 instructions simulated : ctaid=(3,10,0) tid=(15,3,0)
GPGPU-Sim PTX: 49500000 instructions simulated : ctaid=(7,10,0) tid=(15,7,0)
GPGPU-Sim PTX: 49600000 instructions simulated : ctaid=(4,3,0) tid=(15,1,0)
GPGPU-Sim PTX: 49700000 instructions simulated : ctaid=(6,10,0) tid=(15,1,0)
GPGPU-Sim PTX: 49800000 instructions simulated : ctaid=(1,11,0) tid=(15,3,0)
GPGPU-Sim uArch: cycles simulated: 91500  inst.: 49785760 (ipc=544.1) sim_rate=663810 (inst/sec) elapsed = 0:0:01:15 / Thu Dec 14 14:42:29 2017
GPGPU-Sim PTX: 49900000 instructions simulated : ctaid=(3,5,0) tid=(15,1,0)
GPGPU-Sim PTX: 50000000 instructions simulated : ctaid=(4,11,0) tid=(15,1,0)
GPGPU-Sim PTX: 50100000 instructions simulated : ctaid=(2,7,0) tid=(15,1,0)
GPGPU-Sim PTX: 50200000 instructions simulated : ctaid=(7,14,0) tid=(15,1,0)
GPGPU-Sim PTX: 50300000 instructions simulated : ctaid=(7,9,0) tid=(15,3,0)
GPGPU-Sim uArch: cycles simulated: 92500  inst.: 50355680 (ipc=544.4) sim_rate=662574 (inst/sec) elapsed = 0:0:01:16 / Thu Dec 14 14:42:30 2017
GPGPU-Sim PTX: 50400000 instructions simulated : ctaid=(5,13,0) tid=(15,5,0)
GPGPU-Sim PTX: 50500000 instructions simulated : ctaid=(0,0,0) tid=(15,3,0)
GPGPU-Sim PTX: 50600000 instructions simulated : ctaid=(3,11,0) tid=(15,1,0)
GPGPU-Sim PTX: 50700000 instructions simulated : ctaid=(5,4,0) tid=(15,1,0)
GPGPU-Sim PTX: 50800000 instructions simulated : ctaid=(3,3,0) tid=(15,5,0)
GPGPU-Sim PTX: 50900000 instructions simulated : ctaid=(4,6,0) tid=(15,7,0)
GPGPU-Sim uArch: cycles simulated: 93500  inst.: 50895232 (ipc=544.3) sim_rate=660977 (inst/sec) elapsed = 0:0:01:17 / Thu Dec 14 14:42:31 2017
GPGPU-Sim PTX: 51000000 instructions simulated : ctaid=(5,5,0) tid=(15,7,0)
GPGPU-Sim PTX: 51100000 instructions simulated : ctaid=(5,8,0) tid=(15,3,0)
GPGPU-Sim PTX: 51200000 instructions simulated : ctaid=(5,10,0) tid=(15,3,0)
GPGPU-Sim PTX: 51300000 instructions simulated : ctaid=(3,11,0) tid=(15,1,0)
GPGPU-Sim PTX: 51400000 instructions simulated : ctaid=(6,6,0) tid=(15,7,0)
GPGPU-Sim uArch: cycles simulated: 94500  inst.: 51464768 (ipc=544.6) sim_rate=659804 (inst/sec) elapsed = 0:0:01:18 / Thu Dec 14 14:42:32 2017
GPGPU-Sim PTX: 51500000 instructions simulated : ctaid=(5,3,0) tid=(15,1,0)
GPGPU-Sim PTX: 51600000 instructions simulated : ctaid=(4,6,0) tid=(15,3,0)
GPGPU-Sim PTX: 51700000 instructions simulated : ctaid=(1,1,0) tid=(15,7,0)
GPGPU-Sim PTX: 51800000 instructions simulated : ctaid=(5,3,0) tid=(15,7,0)
GPGPU-Sim PTX: 51900000 instructions simulated : ctaid=(6,13,0) tid=(15,5,0)
GPGPU-Sim PTX: 52000000 instructions simulated : ctaid=(2,8,0) tid=(15,3,0)
GPGPU-Sim PTX: 52100000 instructions simulated : ctaid=(2,7,0) tid=(15,5,0)
GPGPU-Sim PTX: 52200000 instructions simulated : ctaid=(7,6,0) tid=(15,7,0)
GPGPU-Sim uArch: cycles simulated: 96000  inst.: 52256800 (ipc=544.3) sim_rate=661478 (inst/sec) elapsed = 0:0:01:19 / Thu Dec 14 14:42:33 2017
GPGPU-Sim PTX: 52300000 instructions simulated : ctaid=(1,1,0) tid=(15,3,0)
GPGPU-Sim PTX: 52400000 instructions simulated : ctaid=(7,3,0) tid=(15,7,0)
GPGPU-Sim PTX: 52500000 instructions simulated : ctaid=(2,8,0) tid=(15,7,0)
GPGPU-Sim PTX: 52600000 instructions simulated : ctaid=(5,13,0) tid=(15,7,0)
GPGPU-Sim PTX: 52700000 instructions simulated : ctaid=(7,3,0) tid=(15,5,0)
GPGPU-Sim PTX: 52800000 instructions simulated : ctaid=(1,4,0) tid=(15,7,0)
GPGPU-Sim uArch: cycles simulated: 97000  inst.: 52809952 (ipc=544.4) sim_rate=660124 (inst/sec) elapsed = 0:0:01:20 / Thu Dec 14 14:42:34 2017
GPGPU-Sim PTX: 52900000 instructions simulated : ctaid=(6,9,0) tid=(15,1,0)
GPGPU-Sim PTX: 53000000 instructions simulated : ctaid=(7,13,0) tid=(15,7,0)
GPGPU-Sim PTX: 53100000 instructions simulated : ctaid=(6,14,0) tid=(15,5,0)
GPGPU-Sim PTX: 53200000 instructions simulated : ctaid=(1,3,0) tid=(15,5,0)
GPGPU-Sim PTX: 53300000 instructions simulated : ctaid=(7,11,0) tid=(15,1,0)
[...]
gpgpu_stall_shd_mem[gl_mem][data_port_stall] = 0
gpgpu_stall_shd_mem[g_mem_ld][mshr_rc] = 0
gpgpu_stall_shd_mem[g_mem_ld][icnt_rc] = 0
gpgpu_stall_shd_mem[g_mem_ld][wb_icnt_rc] = 0
gpgpu_stall_shd_mem[g_mem_ld][wb_rsrv_fail] = 0
gpgpu_stall_shd_mem[g_mem_st][mshr_rc] = 0
gpgpu_stall_shd_mem[g_mem_st][icnt_rc] = 0
gpgpu_stall_shd_mem[g_mem_st][wb_icnt_rc] = 0
gpgpu_stall_shd_mem[g_mem_st][wb_rsrv_fail] = 0
gpgpu_stall_shd_mem[l_mem_ld][mshr_rc] = 0
gpgpu_stall_shd_mem[l_mem_ld][icnt_rc] = 0
gpgpu_stall_shd_mem[l_mem_ld][wb_icnt_rc] = 0
gpgpu_stall_shd_mem[l_mem_ld][wb_rsrv_fail] = 0
gpgpu_stall_shd_mem[l_mem_st][mshr_rc] = 0
gpgpu_stall_shd_mem[l_mem_st][icnt_rc] = 0
gpgpu_stall_shd_mem[l_mem_ld][wb_icnt_rc] = 0
gpgpu_stall_shd_mem[l_mem_ld][wb_rsrv_fail] = 0
gpu_reg_bank_conflict_stalls = 0
Warp Occupancy Distribution:
Stall:136249	W0_Idle:53938	W0_Scoreboard:2807355	W1:0	W2:0	W3:0	W4:0	W5:0	W6:0	W7:0	W8:0	W9:0	W10:0	W11:0	W12:0	W13:0	W14:0	W15:0	W16:0	W17:0	W18:0	W19:0	W20:0	W21:0	W22:0	W23:0	W24:0	W25:0	W26:0	W27:0	W28:0	W29:0	W30:0	W31:0	W32:3938304
traffic_breakdown_coretomem[CONST_ACC_R] = 6120 {8:765,}
traffic_breakdown_coretomem[GLOBAL_ACC_R] = 32592 {8:4074,}
traffic_breakdown_coretomem[GLOBAL_ACC_W] = 294912 {72:4096,}
traffic_breakdown_coretomem[INST_ACC_R] = 600 {8:75,}
traffic_breakdown_memtocore[CONST_ACC_R] = 55080 {72:765,}
traffic_breakdown_memtocore[GLOBAL_ACC_R] = 554064 {136:4074,}
traffic_breakdown_memtocore[GLOBAL_ACC_W] = 32768 {8:4096,}
traffic_breakdown_memtocore[INST_ACC_R] = 10200 {136:75,}
maxmrqlatency = 211 
maxdqlatency = 0 
maxmflatency = 678 
averagemflatency = 273 
max_icnt2mem_latency = 390 
max_icnt2sh_latency = 265294 
mrq_lat_table:1631 	69 	75 	79 	38 	61 	73 	53 	0 	0 	0 	0 	0 	0 	0 	0 	0 	0 	0 	0 	0 	0 	0 	0 	0 	0 	0 	0 	0 	0 	0 	0 	
dq_lat_table:0 	0 	0 	0 	0 	0 	0 	0 	0 	0 	0 	0 	0 	0 	0 	0 	0 	0 	0 	0 	0 	0 	0 	0 	0 	0 	0 	0 	0 	0 	0 	0 	
mf_lat_table:0 	0 	0 	0 	0 	0 	0 	4168 	4558 	209 	0 	0 	0 	0 	0 	0 	0 	0 	0 	0 	0 	0 	0 	0 	0 	0 	0 	0 	0 	0 	0 	0 	
icnt2mem_lat_table:0 	0 	0 	3583 	1539 	1151 	1587 	924 	226 	0 	0 	0 	0 	0 	0 	0 	0 	0 	0 	0 	0 	0 	0 	0 	
icnt2sh_lat_table:0 	0 	0 	989 	2312 	1486 	52 	0 	0 	0 	0 	0 	0 	0 	0 	0 	1920 	2112 	64 	0 	0 	0 	0 	0 	
mf_lat_pw_table:0 	0 	0 	0 	0 	0 	0 	91 	8 	0 	0 	0 	0 	0 	0 	0 	0 	0 	0 	0 	0 	0 	0 	0 	0 	0 	0 	0 	0 	0 	0 	0 	
maximum concurrent accesses to same row:
dram[0]:         1         0         0         0         0         0         0         0         0         0         0         0         0         0         0         0 
dram[1]:         2         0         0         0         0         0         0         0         0         0         0         0         0         0         0         0 
dram[2]:         2         0         0         0         0         0         0         0         0         0         0         0         0         0         0         0 
dram[3]:         0         0         0         0         0         0         0         0         0         0         0         0         0         0         0         0 
dram[4]:         0         0         0         0         0         0         0         0         0         0         0         0         0         0         0         0 
dram[5]:         0         0         0         0         0         0         0         0         0         0         0         0         0         0         0         0 
maximum service time to same row:
dram[0]:     93995         0         0         0    108088    108096    108063    108124    108112    108069    108113    108118    211725    211846    212435    212363 
dram[1]:      3989         0         0         0    108088    108104    108081    108074    108068    108094    108126    108541    211653    211428    212544    212641 
dram[2]:    107766         0         0         0    108097    108081    108110    108075    108072    108129    108113    108116    211847    211607    212365    212360 
dram[3]:         0         0         0         0    108107    108092    108087    108079    108104    108069    108191    108121    211616    211682    212679    212409 
dram[4]:         0         0         0         0    108082    108094    108062    108112    108110    108074    108460    108116    211609    211991    212362    212540 
dram[5]:         0         0         0         0    108085    108122    108082    108072    108079    108091    108122    108194    211651    211426    212410    212638 
average row accesses per activate:
dram[0]:  1.250000       inf      -nan      -nan 10.000000 10.000000 32.000000 32.000000 32.000000 32.000000 32.000000 32.000000 32.000000 32.000000 32.000000 32.000000 
dram[1]:  2.500000       inf      -nan      -nan 10.000000 10.000000 32.000000 32.000000 32.000000 32.000000 32.000000 32.000000 32.000000 32.000000 32.000000 32.000000 
dram[2]:  3.000000       inf      -nan      -nan 10.000000 12.000000 32.000000 32.000000 32.000000 32.000000 32.000000 32.000000 32.000000 32.000000 32.000000 32.000000 
dram[3]:       inf       inf      -nan      -nan 10.000000 12.000000 32.000000 32.000000 32.000000 32.000000 32.000000 32.000000 32.000000 32.000000 32.000000 32.000000 
dram[4]:       inf       inf      -nan      -nan 10.000000 12.000000 32.000000 32.000000 32.000000 32.000000 32.000000 32.000000 32.000000 32.000000 32.000000 32.000000 
dram[5]:       inf       inf      -nan      -nan 10.000000 12.000000 32.000000 32.000000 32.000000 32.000000 32.000000 32.000000 32.000000 32.000000 32.000000 32.000000 
average row locality = 2079/79 = 26.316456
number of total memory accesses made:
dram[0]:         0         0         0         0         0         0         0         0         0         0         0         0         0         0         0         0 
dram[1]:         0         0         0         0         0         0         0         0         0         0         0         0         0         0         0         0 
dram[2]:         0         0         0         0         0         0         0         0         0         0         0         0         0         0         0         0 
dram[3]:         0         0         0         0         0         0         0         0         0         0         0         0         0         0         0         0 
dram[4]:         0         0         0         0         0         0         0         0         0         0         0         0         0         0         0         0 
dram[5]:         0         0         0         0         0         0         0         0         0         0         0         0         0         0         0         0 
total accesses: 0
min_bank_accesses = 0!
min_chip_accesses = 0!
number of total read accesses:
dram[0]:         5         2         0         0        10        10        32        32        32        32        32        32        32        32        32        32 
dram[1]:         5         2         0         0        10        10        32        32        32        32        32        32        32        32        32        32 
dram[2]:         3         2         0         0        10        12        32        32        32        32        32        32        32        32        32        32 
dram[3]:         2         2         0         0        10        12        32        32        32        32        32        32        32        32        32        32 
dram[4]:         2         2         0         0        10        12        32        32        32        32        32        32        32        32        32        32 
dram[5]:         2         2         0         0        10        12        32        32        32        32        32        32        32        32        32        32 
total reads: 2079
min_bank_accesses = 0!
chip skew: 347/346 = 1.00
number of total write accesses:
dram[0]:         0         0         0         0         0         0         0         0         0         0         0         0         0         0         0         0 
dram[1]:         0         0         0         0         0         0         0         0         0         0         0         0         0         0         0         0 
dram[2]:         0         0         0         0         0         0         0         0         0         0         0         0         0         0         0         0 
dram[3]:         0         0         0         0         0         0         0         0         0         0         0         0         0         0         0         0 
dram[4]:         0         0         0         0         0         0         0         0         0         0         0         0         0         0         0         0 
dram[5]:         0         0         0         0         0         0         0         0         0         0         0         0         0         0         0         0 
total reads: 0
min_bank_accesses = 0!
min_chip_accesses = 0!
average mf latency per bank:
dram[0]:       2848      5453    none      none        1536      1516      1475      1584      1358      1392       909      1122       954      1177       845      1045
dram[1]:       3235      5475    none      none        1564      1187      1647      1296      1482      1169       923       953       936       925       831       810
dram[2]:       3114      5435    none      none        1233      1278      1267      1301      1198      1151       985       886      1072      1050       901       852
dram[3]:       5522      5093    none      none        1328      1338      1319      1370      1195      1267       987       936       985       992       813       884
dram[4]:       5270      5651    none      none        1286      1225      1244      1316      1164      1136       962      1060      1045      1232       938       993
dram[5]:       5133      5485    none      none        1395      1234      1523      1299      1294      1173      1007      1035      1003      1068       932       911
maximum mf latency per bank:
dram[0]:        278       268         0         0       630       518       630       585       678       609       572       583       424       570       392       558
dram[1]:        314       277         0         0       579       412       623       537       645       541       574       465       422       551       511       464
dram[2]:        269       269         0         0       461       537       487       603       589       479       464       429       472       415       516       479
dram[3]:        269       269         0         0       505       501       555       556       553       472       486       473       411       480       455       507
dram[4]:        272       269         0         0       592       452       500       507       625       515       558       471       453       600       462       580
dram[5]:        269       269         0         0       561       466       636       521       571       517       520       451       491       621       552       492
Memory Partition 0: 
Cache L2_bank_000:
MSHR contents

Cache L2_bank_001:
MSHR contents

In Dram Latency Queue (total = 0): 
DRAM[0]: 16 bks, busW=4 BL=8 CL=12, tRRD=2 tCCD=6, tRCD=12 tRAS=28 tRP=12 tRC=40
n_cmd=350189 n_nop=349475 n_act=17 n_pre=3 n_req=347 n_rd=694 n_write=0 bw_util=0.003964
n_activity=3498 dram_eff=0.3968
bk0: 10a 350082i bk1: 4a 350163i bk2: 0a 350187i bk3: 0a 350189i bk4: 20a 350110i bk5: 20a 350104i bk6: 64a 349832i bk7: 64a 349774i bk8: 64a 349934i bk9: 64a 349886i bk10: 64a 349958i bk11: 64a 349983i bk12: 64a 350020i bk13: 64a 349976i bk14: 64a 350002i bk15: 64a 349968i 
dram_util_bins: 0 0 0 0 0 0 0 0 0 0
dram_eff_bins: 0 0 0 0 0 0 0 0 0 0
mrqq: max=16 avg=0.0136755
Memory Partition 1: 
Cache L2_bank_002:
MSHR contents

Cache L2_bank_003:
MSHR contents

In Dram Latency Queue (total = 0): 
DRAM[1]: 16 bks, busW=4 BL=8 CL=12, tRRD=2 tCCD=6, tRCD=12 tRAS=28 tRP=12 tRC=40
n_cmd=350189 n_nop=349477 n_act=16 n_pre=2 n_req=347 n_rd=694 n_write=0 bw_util=0.003964
n_activity=3484 dram_eff=0.3984
bk0: 10a 350093i bk1: 4a 350165i bk2: 0a 350186i bk3: 0a 350189i bk4: 20a 350090i bk5: 20a 350060i bk6: 64a 349833i bk7: 64a 349725i bk8: 64a 349985i bk9: 64a 349977i bk10: 64a 349955i bk11: 64a 349979i bk12: 64a 350006i bk13: 64a 349984i bk14: 64a 349994i bk15: 64a 349958i 
dram_util_bins: 0 0 0 0 0 0 0 0 0 0
dram_eff_bins: 0 0 0 0 0 0 0 0 0 0
mrqq: max=16 avg=0.0124447
Memory Partition 2: 
Cache L2_bank_004:
MSHR contents

Cache L2_bank_005:
MSHR contents

In Dram Latency Queue (total = 0): 
DRAM[2]: 16 bks, busW=4 BL=8 CL=12, tRRD=2 tCCD=6, tRCD=12 tRAS=28 tRP=12 tRC=40
n_cmd=350189 n_nop=349479 n_act=15 n_pre=1 n_req=347 n_rd=694 n_write=0 bw_util=0.003964
n_activity=3368 dram_eff=0.4121
bk0: 6a 350139i bk1: 4a 350167i bk2: 0a 350187i bk3: 0a 350190i bk4: 20a 350102i bk5: 24a 350073i bk6: 64a 349868i bk7: 64a 349717i bk8: 64a 349996i bk9: 64a 349939i bk10: 64a 349959i bk11: 64a 349920i bk12: 64a 350013i bk13: 64a 349987i bk14: 64a 349963i bk15: 64a 349979i 
dram_util_bins: 0 0 0 0 0 0 0 0 0 0
dram_eff_bins: 0 0 0 0 0 0 0 0 0 0
mrqq: max=16 avg=0.0137669
Memory Partition 3: 
Cache L2_bank_006:
MSHR contents

Cache L2_bank_007:
MSHR contents

In Dram Latency Queue (total = 0): 
DRAM[3]: 16 bks, busW=4 BL=8 CL=12, tRRD=2 tCCD=6, tRCD=12 tRAS=28 tRP=12 tRC=40
n_cmd=350189 n_nop=349483 n_act=14 n_pre=0 n_req=346 n_rd=692 n_write=0 bw_util=0.003952
n_activity=3345 dram_eff=0.4138
bk0: 4a 350166i bk1: 4a 350169i bk2: 0a 350188i bk3: 0a 350191i bk4: 20a 350115i bk5: 24a 350071i bk6: 64a 349855i bk7: 64a 349717i bk8: 64a 350013i bk9: 64a 349909i bk10: 64a 349993i bk11: 64a 349947i bk12: 64a 349979i bk13: 64a 349954i bk14: 64a 349980i bk15: 64a 349957i 
dram_util_bins: 0 0 0 0 0 0 0 0 0 0
dram_eff_bins: 0 0 0 0 0 0 0 0 0 0
mrqq: max=16 avg=0.012222
Memory Partition 4: 
Cache L2_bank_008:
MSHR contents

Cache L2_bank_009:
MSHR contents

In Dram Latency Queue (total = 0): 
DRAM[4]: 16 bks, busW=4 BL=8 CL=12, tRRD=2 tCCD=6, tRCD=12 tRAS=28 tRP=12 tRC=40
n_cmd=350189 n_nop=349483 n_act=14 n_pre=0 n_req=346 n_rd=692 n_write=0 bw_util=0.003952
n_activity=3356 dram_eff=0.4124
bk0: 4a 350168i bk1: 4a 350168i bk2: 0a 350187i bk3: 0a 350188i bk4: 20a 350101i bk5: 24a 350046i bk6: 64a 349840i bk7: 64a 349791i bk8: 64a 349995i bk9: 64a 349988i bk10: 64a 349977i bk11: 64a 349970i bk12: 64a 350008i bk13: 64a 349994i bk14: 64a 349986i bk15: 64a 349994i 
dram_util_bins: 0 0 0 0 0 0 0 0 0 0
dram_eff_bins: 0 0 0 0 0 0 0 0 0 0
mrqq: max=16 avg=0.0115338
Memory Partition 5: 
Cache L2_bank_010:
MSHR contents

Cache L2_bank_011:
MSHR contents

In Dram Latency Queue (total = 0): 
DRAM[5]: 16 bks, busW=4 BL=8 CL=12, tRRD=2 tCCD=6, tRCD=12 tRAS=28 tRP=12 tRC=40
n_cmd=350189 n_nop=349483 n_act=14 n_pre=0 n_req=346 n_rd=692 n_write=0 bw_util=0.003952
n_activity=3437 dram_eff=0.4027
bk0: 4a 350167i bk1: 4a 350168i bk2: 0a 350189i bk3: 0a 350190i bk4: 20a 350112i bk5: 24a 350099i bk6: 64a 349816i bk7: 64a 349735i bk8: 64a 349969i bk9: 64a 349970i bk10: 64a 350007i bk11: 64a 350014i bk12: 64a 350029i bk13: 64a 349978i bk14: 64a 350003i bk15: 64a 349964i 
dram_util_bins: 0 0 0 0 0 0 0 0 0 0
dram_eff_bins: 0 0 0 0 0 0 0 0 0 0
mrqq: max=16 avg=0.0117194

========= L2 cache stats =========
L2_cache_bank[0]: Access = 783, Miss = 175, Miss_rate = 0.223, Pending_hits = 15, Reservation_fails = 534
L2_cache_bank[1]: Access = 739, Miss = 172, Miss_rate = 0.233, Pending_hits = 6, Reservation_fails = 129
L2_cache_bank[2]: Access = 797, Miss = 175, Miss_rate = 0.220, Pending_hits = 15, Reservation_fails = 313
L2_cache_bank[3]: Access = 739, Miss = 172, Miss_rate = 0.233, Pending_hits = 6, Reservation_fails = 169
L2_cache_bank[4]: Access = 754, Miss = 173, Miss_rate = 0.229, Pending_hits = 9, Reservation_fails = 183
L2_cache_bank[5]: Access = 744, Miss = 174, Miss_rate = 0.234, Pending_hits = 6, Reservation_fails = 219
L2_cache_bank[6]: Access = 739, Miss = 172, Miss_rate = 0.233, Pending_hits = 6, Reservation_fails = 132
L2_cache_bank[7]: Access = 745, Miss = 174, Miss_rate = 0.234, Pending_hits = 6, Reservation_fails = 125
L2_cache_bank[8]: Access = 738, Miss = 172, Miss_rate = 0.233, Pending_hits = 6, Reservation_fails = 113
L2_cache_bank[9]: Access = 748, Miss = 174, Miss_rate = 0.233, Pending_hits = 6, Reservation_fails = 162
L2_cache_bank[10]: Access = 736, Miss = 172, Miss_rate = 0.234, Pending_hits = 6, Reservation_fails = 90
L2_cache_bank[11]: Access = 748, Miss = 174, Miss_rate = 0.233, Pending_hits = 6, Reservation_fails = 147
L2_total_cache_accesses = 9010
L2_total_cache_misses = 2079
L2_total_cache_miss_rate = 0.2307
L2_total_cache_pending_hits = 93
L2_total_cache_reservation_fails = 2316
L2_total_cache_breakdown:
	L2_cache_stats_breakdown[GLOBAL_ACC_R][HIT] = 2026
	L2_cache_stats_breakdown[GLOBAL_ACC_R][MISS] = 2048
	L2_cache_stats_breakdown[GLOBAL_ACC_R][RESERVATION_FAIL] = 271
	L2_cache_stats_breakdown[CONST_ACC_R][HIT] = 661
	L2_cache_stats_breakdown[CONST_ACC_R][HIT_RESERVED] = 78
	L2_cache_stats_breakdown[CONST_ACC_R][MISS] = 26
	L2_cache_stats_breakdown[CONST_ACC_R][RESERVATION_FAIL] = 1598
	L2_cache_stats_breakdown[GLOBAL_ACC_W][HIT] = 4096
	L2_cache_stats_breakdown[INST_ACC_R][HIT] = 55
	L2_cache_stats_breakdown[INST_ACC_R][HIT_RESERVED] = 15
	L2_cache_stats_breakdown[INST_ACC_R][MISS] = 5
	L2_cache_stats_breakdown[INST_ACC_R][RESERVATION_FAIL] = 447
L2_cache_data_port_util = 0.006
L2_cache_fill_port_util = 0.003

icnt_total_pkts_mem_to_simt=27136
icnt_total_pkts_simt_to_mem=17202
LD_mem_lat_dist  0 0 0 0 0 0 0 0 0 0 0 0 0 0 0 0 0 0 0 0 0 0 0 0 0 0 0
ST_mem_lat_dist  0 0 0 0 0 0 0 0 0 0 0 0 0 0 0 0 0 0 0 0 0 0 0 0 0 0 0
----------------------------Interconnect-DETAILS--------------------------------
Class 0:
Packet latency average = 28.5695
	minimum = 6
	maximum = 292
Network latency average = 19.3411
	minimum = 6
	maximum = 276
Slowest packet = 3725
Flit latency average = 16.7791
	minimum = 6
	maximum = 274
Slowest flit = 32526
Fragmentation average = 0.0929523
	minimum = 0
	maximum = 222
Injected packet rate average = 0.00251572
	minimum = 0.00212594 (at node 4)
	maximum = 0.0030042 (at node 17)
Accepted packet rate average = 0.00251572
	minimum = 0.00212594 (at node 4)
	maximum = 0.0030042 (at node 17)
Injected flit rate average = 0.00618989
	minimum = 0.00405586 (at node 4)
	maximum = 0.00921616 (at node 17)
Accepted flit rate average= 0.00618989
	minimum = 0.00533745 (at node 25)
	maximum = 0.00787048 (at node 8)
Injected packet length average = 2.46049
Accepted packet length average = 2.46049
Total in-flight flits = 0 (0 measured)
====== Overall Traffic Statistics ======
====== Traffic class 0 ======
Packet latency average = 28.5695 (1 samples)
	minimum = 6 (1 samples)
	maximum = 292 (1 samples)
Network latency average = 19.3411 (1 samples)
	minimum = 6 (1 samples)
	maximum = 276 (1 samples)
Flit latency average = 16.7791 (1 samples)
	minimum = 6 (1 samples)
	maximum = 274 (1 samples)
Fragmentation average = 0.0929523 (1 samples)
	minimum = 0 (1 samples)
	maximum = 222 (1 samples)
Injected packet rate average = 0.00251572 (1 samples)
	minimum = 0.00212594 (1 samples)
	maximum = 0.0030042 (1 samples)
Accepted packet rate average = 0.00251572 (1 samples)
	minimum = 0.00212594 (1 samples)
	maximum = 0.0030042 (1 samples)
Injected flit rate average = 0.00618989 (1 samples)
	minimum = 0.00405586 (1 samples)
	maximum = 0.00921616 (1 samples)
Accepted flit rate average = 0.00618989 (1 samples)
	minimum = 0.00533745 (1 samples)
	maximum = 0.00787048 (1 samples)
Injected packet size average = 2.46049 (1 samples)
Accepted packet size average = 2.46049 (1 samples)
Hops average = 1 (1 samples)
----------------------------END-of-Interconnect-DETAILS-------------------------


gpgpu_simulation_time = 0 days, 0 hrs, 3 min, 32 sec (212 sec)
gpgpu_simulation_rate = 594151 (inst/sec)
gpgpu_simulation_rate = 1251 (cycle/sec)
IO:      0.000000
GPU:     211.387653
Copy:    0.011179
Compute: 0.000053
