

        *** GPGPU-Sim Simulator Version 3.2.2  [build 0] ***


GPGPU-Sim PTX: simulation mode 0 (can change with PTX_SIM_MODE_FUNC environment variable:
               1=functional simulation only, 0=detailed performance simulator)
GPGPU-Sim: Configuration options:

-network_mode                           1 # Interconnection network mode
-inter_config_file   config_fermi_islip.icnt # Interconnection network config file
-gpgpu_ptx_use_cuobjdump                    1 # Use cuobjdump to extract ptx and sass from binaries
-gpgpu_experimental_lib_support                    0 # Try to extract code from cuda libraries [Broken because of unknown cudaGetExportTable]
-gpgpu_ptx_convert_to_ptxplus                    0 # Convert SASS (native ISA) to ptxplus and run ptxplus
-gpgpu_ptx_force_max_capability                   20 # Force maximum compute capability
-gpgpu_ptx_inst_debug_to_file                    0 # Dump executed instructions' debug information to file
-gpgpu_ptx_inst_debug_file       inst_debug.txt # Executed instructions' debug output file
-gpgpu_ptx_inst_debug_thread_uid                    1 # Thread UID for executed instructions' debug output
-gpgpu_simd_model                       1 # 1 = post-dominator
-gpgpu_shader_core_pipeline              1536:32 # shader core pipeline config, i.e., {<nthread>:<warpsize>}
-gpgpu_tex_cache:l1  4:128:24,L:R:m:N:L,F:128:4,128:2 # per-shader L1 texture cache  (READ-ONLY) config  {<nsets>:<bsize>:<assoc>,<rep>:<wr>:<alloc>:<wr_alloc>,<mshr>:<N>:<merge>,<mq>:<rf>}
-gpgpu_const_cache:l1 64:64:2,L:R:f:N:L,A:2:32,4 # per-shader L1 constant memory cache  (READ-ONLY) config  {<nsets>:<bsize>:<assoc>,<rep>:<wr>:<alloc>:<wr_alloc>,<mshr>:<N>:<merge>,<mq>} 
-gpgpu_cache:il1     4:128:4,L:R:f:N:L,A:2:32,4 # shader L1 instruction cache config  {<nsets>:<bsize>:<assoc>,<rep>:<wr>:<alloc>:<wr_alloc>,<mshr>:<N>:<merge>,<mq>} 
-gpgpu_cache:dl1     32:128:4,L:L:m:N:H,A:32:8,8 # per-shader L1 data cache config  {<nsets>:<bsize>:<assoc>,<rep>:<wr>:<alloc>:<wr_alloc>,<mshr>:<N>:<merge>,<mq> | none}
-gpgpu_cache:dl1PrefL1                 none # per-shader L1 data cache config  {<nsets>:<bsize>:<assoc>,<rep>:<wr>:<alloc>:<wr_alloc>,<mshr>:<N>:<merge>,<mq> | none}
-gpgpu_cache:dl1PreShared                 none # per-shader L1 data cache config  {<nsets>:<bsize>:<assoc>,<rep>:<wr>:<alloc>:<wr_alloc>,<mshr>:<N>:<merge>,<mq> | none}
-gmem_skip_L1D                          0 # global memory access skip L1D cache (implements -Xptxas -dlcm=cg, default=no skip)
-gpgpu_perfect_mem                      0 # enable perfect memory mode (no cache miss)
-n_regfile_gating_group                    4 # group of lanes that should be read/written together)
-gpgpu_clock_gated_reg_file                    0 # enable clock gated reg file for power calculations
-gpgpu_clock_gated_lanes                    0 # enable clock gated lanes for power calculations
-gpgpu_shader_registers                32768 # Number of registers per shader core. Limits number of concurrent CTAs. (default 8192)
-gpgpu_shader_cta                       8 # Maximum number of concurrent CTAs in shader (default 8)
-gpgpu_num_cta_barriers                   16 # Maximum number of named barriers per CTA (default 16)
-gpgpu_n_clusters                      15 # number of processing clusters
-gpgpu_n_cores_per_cluster                    1 # number of simd cores per cluster
-gpgpu_n_cluster_ejection_buffer_size                    8 # number of packets in ejection buffer
-gpgpu_n_ldst_response_buffer_size                    2 # number of response packets in ld/st unit ejection buffer
-gpgpu_shmem_size                   16384 # Size of shared memory per shader core (default 16kB)
-gpgpu_shmem_size                   49152 # Size of shared memory per shader core (default 16kB)
-gpgpu_shmem_size_PrefL1                16384 # Size of shared memory per shader core (default 16kB)
-gpgpu_shmem_size_PrefShared                16384 # Size of shared memory per shader core (default 16kB)
-gpgpu_shmem_num_banks                   32 # Number of banks in the shared memory in each shader core (default 16)
-gpgpu_shmem_limited_broadcast                    0 # Limit shared memory to do one broadcast per cycle (default on)
-gpgpu_shmem_warp_parts                    1 # Number of portions a warp is divided into for shared memory bank conflict check 
-gpgpu_warpdistro_shader                   -1 # Specify which shader core to collect the warp size distribution from
-gpgpu_warp_issue_shader                    0 # Specify which shader core to collect the warp issue distribution from
-gpgpu_local_mem_map                    1 # Mapping from local memory space address to simulated GPU physical address space (default = enabled)
-gpgpu_num_reg_banks                   16 # Number of register banks (default = 8)
-gpgpu_reg_bank_use_warp_id                    0 # Use warp ID in mapping registers to banks (default = off)
-gpgpu_operand_collector_num_units_sp                    6 # number of collector units (default = 4)
-gpgpu_operand_collector_num_units_sfu                    8 # number of collector units (default = 4)
-gpgpu_operand_collector_num_units_mem                    2 # number of collector units (default = 2)
-gpgpu_operand_collector_num_units_gen                    0 # number of collector units (default = 0)
-gpgpu_operand_collector_num_in_ports_sp                    2 # number of collector unit in ports (default = 1)
-gpgpu_operand_collector_num_in_ports_sfu                    1 # number of collector unit in ports (default = 1)
-gpgpu_operand_collector_num_in_ports_mem                    1 # number of collector unit in ports (default = 1)
-gpgpu_operand_collector_num_in_ports_gen                    0 # number of collector unit in ports (default = 0)
-gpgpu_operand_collector_num_out_ports_sp                    2 # number of collector unit in ports (default = 1)
-gpgpu_operand_collector_num_out_ports_sfu                    1 # number of collector unit in ports (default = 1)
-gpgpu_operand_collector_num_out_ports_mem                    1 # number of collector unit in ports (default = 1)
-gpgpu_operand_collector_num_out_ports_gen                    0 # number of collector unit in ports (default = 0)
-gpgpu_coalesce_arch                   13 # Coalescing arch (default = 13, anything else is off for now)
-gpgpu_num_sched_per_core                    2 # Number of warp schedulers per core
-gpgpu_max_insn_issue_per_warp                    1 # Max number of instructions that can be issued per warp in one cycle by scheduler
-gpgpu_simt_core_sim_order                    1 # Select the simulation order of cores in a cluster (0=Fix, 1=Round-Robin)
-gpgpu_pipeline_widths        2,1,1,2,1,1,2 # Pipeline widths ID_OC_SP,ID_OC_SFU,ID_OC_MEM,OC_EX_SP,OC_EX_SFU,OC_EX_MEM,EX_WB
-gpgpu_num_sp_units                     2 # Number of SP units (default=1)
-gpgpu_num_sfu_units                    1 # Number of SF units (default=1)
-gpgpu_num_mem_units                    1 # Number if ldst units (default=1) WARNING: not hooked up to anything
-gpgpu_scheduler                      lrr # Scheduler configuration: < lrr | gto | two_level_active > If two_level_active:<num_active_warps>:<inner_prioritization>:<outer_prioritization>For complete list of prioritization values see shader.h enum scheduler_prioritization_typeDefault: gto
-gpgpu_dram_scheduler                    1 # 0 = fifo, 1 = FR-FCFS (defaul)
-gpgpu_dram_partition_queues              8:8:8:8 # i2$:$2d:d2$:$2i
-l2_ideal                               0 # Use a ideal L2 cache that always hit
-gpgpu_cache:dl2     64:128:8,L:B:m:W:L,A:32:4,4:0,32 # unified banked L2 data cache config  {<nsets>:<bsize>:<assoc>,<rep>:<wr>:<alloc>:<wr_alloc>,<mshr>:<N>:<merge>,<mq>}
-gpgpu_cache:dl2_texture_only                    0 # L2 cache used for texture only
-gpgpu_n_mem                            6 # number of memory modules (e.g. memory controllers) in gpu
-gpgpu_n_sub_partition_per_mchannel                    2 # number of memory subpartition in each memory module
-gpgpu_n_mem_per_ctrlr                    2 # number of memory chips per memory controller
-gpgpu_memlatency_stat                   14 # track and display latency statistics 0x2 enables MC, 0x4 enables queue logs
-gpgpu_frfcfs_dram_sched_queue_size                   16 # 0 = unlimited (default); # entries per chip
-gpgpu_dram_return_queue_size                  116 # 0 = unlimited (default); # entries per chip
-gpgpu_dram_buswidth                    4 # default = 4 bytes (8 bytes per cycle at DDR)
-gpgpu_dram_burst_length                    8 # Burst length of each DRAM request (default = 4 data bus cycle)
-dram_data_command_freq_ratio                    4 # Frequency ratio between DRAM data bus and command bus (default = 2 times, i.e. DDR)
-gpgpu_dram_timing_opt nbk=16:CCD=2:RRD=6:RCD=12:RAS=28:RP=12:RC=40: CL=12:WL=4:CDLR=5:WR=12:nbkgrp=4:CCDL=3:RTPL=2 # DRAM timing parameters = {nbk:tCCD:tRRD:tRCD:tRAS:tRP:tRC:CL:WL:tCDLR:tWR:nbkgrp:tCCDL:tRTPL}
-rop_latency                          120 # ROP queue latency (default 85)
-dram_latency                         100 # DRAM latency (default 30)
-gpgpu_mem_addr_mapping dramid@8;00000000.00000000.00000000.00000000.0000RRRR.RRRRRRRR.BBBCCCCB.CCSSSSSS # mapping memory address to dram model {dramid@<start bit>;<memory address map>}
-gpgpu_mem_addr_test                    0 # run sweep test to check address mapping for aliased address
-gpgpu_mem_address_mask                    1 # 0 = old addressing mask, 1 = new addressing mask, 2 = new add. mask + flipped bank sel and chip sel bits
-gpuwattch_xml_file  gpuwattch_gtx480.xml # GPUWattch XML file
-power_simulation_enabled                    1 # Turn on power simulator (1=On, 0=Off)
-power_per_cycle_dump                    0 # Dump detailed power output each cycle
-power_trace_enabled                    0 # produce a file for the power trace (1=On, 0=Off)
-power_trace_zlevel                     6 # Compression level of the power trace output log (0=no comp, 9=highest)
-steady_power_levels_enabled                    0 # produce a file for the steady power levels (1=On, 0=Off)
-steady_state_definition                  8:4 # allowed deviation:number of samples
-gpgpu_max_cycle                        0 # terminates gpu simulation early (0 = no limit)
-gpgpu_max_insn                         0 # terminates gpu simulation early (0 = no limit)
-gpgpu_max_cta                          0 # terminates gpu simulation early (0 = no limit)
-gpgpu_runtime_stat                   500 # display runtime statistics such as dram utilization {<freq>:<flag>}
-liveness_message_freq                    1 # Minimum number of seconds between simulation liveness messages (0 = always print)
-gpgpu_flush_l1_cache                    0 # Flush L1 cache at the end of each kernel call
-gpgpu_flush_l2_cache                    0 # Flush L2 cache at the end of each kernel call
-gpgpu_deadlock_detect                    1 # Stop the simulation at deadlock (1=on (default), 0=off)
-gpgpu_ptx_instruction_classification                    0 # if enabled will classify ptx instruction types per kernel (Max 255 kernels now)
-gpgpu_ptx_sim_mode                     0 # Select between Performance (default) or Functional simulation (1)
-gpgpu_clock_domains 700.0:700.0:700.0:924.0 # Clock Domain Frequencies in MhZ {<Core Clock>:<ICNT Clock>:<L2 Clock>:<DRAM Clock>}
-gpgpu_max_concurrent_kernel                    8 # maximum kernels that can run concurrently on GPU
-gpgpu_cflog_interval                    0 # Interval between each snapshot in control flow logger
-visualizer_enabled                     0 # Turn on visualizer output (1=On, 0=Off)
-visualizer_outputfile                 NULL # Specifies the output log file for visualizer
-visualizer_zlevel                      6 # Compression level of the visualizer output log (0=no comp, 9=highest)
-trace_enabled                          0 # Turn on traces
-trace_components                    none # comma seperated list of traces to enable. Complete list found in trace_streams.tup. Default none
-trace_sampling_core                    0 # The core which is printed using CORE_DPRINTF. Default 0
-trace_sampling_memory_partition                   -1 # The memory partition which is printed using MEMPART_DPRINTF. Default -1 (i.e. all)
-enable_ptx_file_line_stats                    1 # Turn on PTX source line statistic profiling. (1 = On)
-ptx_line_stats_filename gpgpu_inst_stats.txt # Output file for PTX source line statistics.
-save_embedded_ptx                      0 # saves ptx files embedded in binary as <n>.ptx
-keep                                   0 # keep intermediate files created by GPGPU-Sim when interfacing with external programs
-gpgpu_ptx_save_converted_ptxplus                    0 # Saved converted ptxplus to a file
-ptx_opcode_latency_int         4,13,4,5,145 # Opcode latencies for integers <ADD,MAX,MUL,MAD,DIV>Default 1,1,19,25,145
-ptx_opcode_latency_fp          4,13,4,5,39 # Opcode latencies for single precision floating points <ADD,MAX,MUL,MAD,DIV>Default 1,1,1,1,30
-ptx_opcode_latency_dp         8,19,8,8,330 # Opcode latencies for double precision floating points <ADD,MAX,MUL,MAD,DIV>Default 8,8,8,8,335
-ptx_opcode_initiation_int            1,2,2,1,8 # Opcode initiation intervals for integers <ADD,MAX,MUL,MAD,DIV>Default 1,1,4,4,32
-ptx_opcode_initiation_fp            1,2,1,1,4 # Opcode initiation intervals for single precision floating points <ADD,MAX,MUL,MAD,DIV>Default 1,1,1,1,5
-ptx_opcode_initiation_dp         8,16,8,8,130 # Opcode initiation intervals for double precision floating points <ADD,MAX,MUL,MAD,DIV>Default 8,8,8,8,130
DRAM Timing Options:
nbk                                    16 # number of banks
CCD                                     2 # column to column delay
RRD                                     6 # minimal delay between activation of rows in different banks
RCD                                    12 # row to column delay
RAS                                    28 # time needed to activate row
RP                                     12 # time needed to precharge (deactivate) row
RC                                     40 # row cycle time
CDLR                                    5 # switching from write to read (changes tWTR)
WR                                     12 # last data-in to row precharge
CL                                     12 # CAS latency
WL                                      4 # Write latency
nbkgrp                                  4 # number of bank groups
CCDL                                    3 # column to column delay between accesses to different bank groups
RTPL                                    2 # read to precharge delay between accesses to different bank groups
Total number of memory sub partition = 12
addr_dec_mask[CHIP]  = 0000000000000000 	high:64 low:0
addr_dec_mask[BK]    = 000000000000e100 	high:16 low:8
addr_dec_mask[ROW]   = 000000000fff0000 	high:28 low:16
addr_dec_mask[COL]   = 0000000000001eff 	high:13 low:0
addr_dec_mask[BURST] = 000000000000003f 	high:6 low:0
sub_partition_id_mask = 0000000000000100
GPGPU-Sim uArch: clock freqs: 700000000.000000:700000000.000000:700000000.000000:924000000.000000
GPGPU-Sim uArch: clock periods: 0.00000000142857142857:0.00000000142857142857:0.00000000142857142857:0.00000000108225108225
*** Initializing Memory Statistics ***
GPGPU-Sim uArch: interconnect node map (shaderID+MemID to icntID)
GPGPU-Sim uArch: Memory nodes ID start from index: 15
GPGPU-Sim uArch:    0   1   2   3   4
GPGPU-Sim uArch:    5   6   7   8   9
GPGPU-Sim uArch:   10  11  12  13  14
GPGPU-Sim uArch:   15  16  17  18  19
GPGPU-Sim uArch:   20  21  22  23  24
GPGPU-Sim uArch:   25  26
GPGPU-Sim uArch: interconnect node reverse map (icntID to shaderID+MemID)
GPGPU-Sim uArch: Memory nodes start from ID: 15
GPGPU-Sim uArch:    0   1   2   3   4
GPGPU-Sim uArch:    5   6   7   8   9
GPGPU-Sim uArch:   10  11  12  13  14
GPGPU-Sim uArch:   15  16  17  18  19
GPGPU-Sim uArch:   20  21  22  23  24
GPGPU-Sim uArch:   25  26
a32c5c7bd2c9c4e4f9085af0000c6dec  /root/ispass2009-benchmarks/bin/release/CP
GPGPU-Sim uArch: performance model initialization complete.
GPGPU-Sim PTX: __cudaRegisterFatBinary, fat_cubin_handle = 1, filename=src/cuda_short/main.cu
self exe links to: /root/ispass2009-benchmarks/bin/release/CP
Running md5sum using "md5sum /root/ispass2009-benchmarks/bin/release/CP "
Running cuobjdump using "$CUDA_INSTALL_PATH/bin/cuobjdump -ptx -elf -sass /root/ispass2009-benchmarks/bin/release/CP > _cuobjdump_complete_output_SyYro1"
Parsing file _cuobjdump_complete_output_SyYro1
######### cuobjdump parser ########
## Adding new section ELF
Adding arch: sm_10
Adding identifier: src/cuda_short/main.cu
## Adding new section PTX
Adding ptx filename: _cuobjdump_1.ptx
Adding arch: sm_10
Adding identifier: src/cuda_short/main.cu
## Adding new section ELF
Adding arch: sm_10
Adding identifier: src/cuda_short/cuenergy_pre8_coalesce.cu
## Adding new section PTX
Adding ptx filename: _cuobjdump_2.ptx
Adding arch: sm_10
Adding identifier: src/cuda_short/cuenergy_pre8_coalesce.cu
Done parsing!!!
GPGPU-Sim PTX: __cudaRegisterFatBinary, fat_cubin_handle = 2, filename=src/cuda_short/cuenergy_pre8_coalesce.cu
GPGPU-Sim PTX: __cudaRegisterFunction _Z7cenergyifPf : hostFun 0x0x401d52, fat_cubin_handle = 2
GPGPU-Sim PTX: allocating constant region for "atominfo" from 0x100 to 0xfb00 (global memory space) 1
GPGPU-Sim PTX: instruction assembly for function '_Z7cenergyifPf'...   done.
GPGPU-Sim PTX: finding reconvergence points for '_Z7cenergyifPf'...
GPGPU-Sim PTX: Finding dominators for '_Z7cenergyifPf'...
GPGPU-Sim PTX: Finding immediate dominators for '_Z7cenergyifPf'...
GPGPU-Sim PTX: Finding postdominators for '_Z7cenergyifPf'...
GPGPU-Sim PTX: Finding immediate postdominators for '_Z7cenergyifPf'...
GPGPU-Sim PTX: pre-decoding instructions for '_Z7cenergyifPf'...
GPGPU-Sim PTX: reconvergence points for _Z7cenergyifPf...
GPGPU-Sim PTX:  1 (potential) branch divergence @  PC=0x048 (_2.ptx:70) @%p1 bra $Lt_0_2306;
GPGPU-Sim PTX:    immediate post dominator      @  PC=0x1c0 (_2.ptx:126) cvt.u32.u16 %r20, %nctaid.x;
GPGPU-Sim PTX:  2 (potential) branch divergence @  PC=0x178 (_2.ptx:114) @%p2 bra $Lt_0_1794;
GPGPU-Sim PTX:    immediate post dominator      @  PC=0x180 (_2.ptx:115) bra.uni $Lt_0_1282;
GPGPU-Sim PTX:  3 (potential) branch divergence @  PC=0x180 (_2.ptx:115) bra.uni $Lt_0_1282;
GPGPU-Sim PTX:    immediate post dominator      @  PC=0x1c0 (_2.ptx:126) cvt.u32.u16 %r20, %nctaid.x;
GPGPU-Sim PTX: ... end of reconvergence points for _Z7cenergyifPf
GPGPU-Sim PTX: ... done pre-decoding instructions for '_Z7cenergyifPf'.
GPGPU-Sim PTX: finished parsing EMBEDDED .ptx file _2.ptx
Adding _cuobjdump_2.ptx with cubin handle 2
GPGPU-Sim PTX: extracting embedded .ptx to temporary file "_ptx_Bj3aEj"
Running: cat _ptx_Bj3aEj | sed 's/.version 1.5/.version 1.4/' | sed 's/, texmode_independent//' | sed 's/\(\.extern \.const\[1\] .b8 \w\+\)\[\]/\1\[1\]/' | sed 's/const\[.\]/const\[0\]/g' > _ptx2_sS7UTB
GPGPU-Sim PTX: generating ptxinfo using "$CUDA_INSTALL_PATH/bin/ptxas --gpu-name=sm_20 -v _ptx2_sS7UTB --output-file  /dev/null 2> _ptx_Bj3aEjinfo"
GPGPU-Sim PTX: Kernel '_Z7cenergyifPf' : regs=15, lmem=0, smem=0, cmem=64048
GPGPU-Sim PTX: removing ptxinfo using "rm -f _ptx_Bj3aEj _ptx2_sS7UTB _ptx_Bj3aEjinfo"
GPGPU-Sim PTX: loading globals with explicit initializers... 
GPGPU-Sim PTX: finished loading globals (0 bytes total).
GPGPU-Sim PTX: loading constants with explicit initializers...  done.
GPGPU-Sim PTX: __cudaRegisterVar: hostVar = 0x616180; deviceAddress = atominfo; deviceName = atominfo
GPGPU-Sim PTX: __cudaRegisterVar: Registering const memory space of 64000 bytes
GPGPU-Sim PTX registering constant atominfo (64000 bytes) to name mapping
CUDA accelerated coulombic potential microbenchmark
Original version by John E. Stone <johns@ks.uiuc.edu>
This version maintained by Chris Rodrigues
GPGPU-Sim PTX: cudaMemcpyToSymbol: symbol = 0x616180
GPGPU-Sim PTX: starting gpgpu_ptx_sim_memcpy_symbol with hostVar 0x0x616180
GPGPU-Sim PTX: gpgpu_ptx_sim_memcpy_symbol: Found PTX symbol w/ hostVar=0x616180
GPGPU-Sim PTX: gpgpu_ptx_sim_memcpy_symbol: copying const memory 3200 bytes  to  symbol atominfo+0 @0x100 ...

GPGPU-Sim PTX: cudaLaunch for 0x0x401d52 (mode=performance simulation) on stream 0
GPGPU-Sim PTX: pushing kernel '_Z7cenergyifPf' to stream 0, gridDim= (8,32,1) blockDim = (16,8,1) 
kernel '_Z7cenergyifPf' transfer to GPU hardware scheduler
GPGPU-Sim uArch: Shader 1 bind to kernel 1 '_Z7cenergyifPf'
GPGPU-Sim uArch: CTA/core = 8, limited by: cta_limit
GPGPU-Sim uArch: core:  1, cta: 0 initialized @(1,0)
GPGPU-Sim uArch: Shader 2 bind to kernel 1 '_Z7cenergyifPf'
GPGPU-Sim uArch: core:  2, cta: 0 initialized @(1,0)
GPGPU-Sim uArch: Shader 3 bind to kernel 1 '_Z7cenergyifPf'
GPGPU-Sim uArch: core:  3, cta: 0 initialized @(1,0)
GPGPU-Sim uArch: Shader 4 bind to kernel 1 '_Z7cenergyifPf'
GPGPU-Sim uArch: core:  4, cta: 0 initialized @(1,0)
GPGPU-Sim uArch: Shader 5 bind to kernel 1 '_Z7cenergyifPf'
GPGPU-Sim uArch: core:  5, cta: 0 initialized @(1,0)
GPGPU-Sim uArch: Shader 6 bind to kernel 1 '_Z7cenergyifPf'
GPGPU-Sim uArch: core:  6, cta: 0 initialized @(1,0)
GPGPU-Sim uArch: Shader 7 bind to kernel 1 '_Z7cenergyifPf'
GPGPU-Sim uArch: core:  7, cta: 0 initialized @(1,0)
GPGPU-Sim uArch: Shader 8 bind to kernel 1 '_Z7cenergyifPf'
GPGPU-Sim uArch: core:  8, cta: 0 initialized @(1,0)
GPGPU-Sim uArch: Shader 9 bind to kernel 1 '_Z7cenergyifPf'
GPGPU-Sim uArch: core:  9, cta: 0 initialized @(1,0)
GPGPU-Sim uArch: Shader 10 bind to kernel 1 '_Z7cenergyifPf'
GPGPU-Sim uArch: core: 10, cta: 0 initialized @(1,0)
GPGPU-Sim uArch: Shader 11 bind to kernel 1 '_Z7cenergyifPf'
GPGPU-Sim uArch: core: 11, cta: 0 initialized @(1,0)
GPGPU-Sim uArch: Shader 12 bind to kernel 1 '_Z7cenergyifPf'
GPGPU-Sim uArch: core: 12, cta: 0 initialized @(1,0)
GPGPU-Sim uArch: Shader 13 bind to kernel 1 '_Z7cenergyifPf'
GPGPU-Sim uArch: core: 13, cta: 0 initialized @(1,0)
GPGPU-Sim uArch: Shader 14 bind to kernel 1 '_Z7cenergyifPf'
GPGPU-Sim uArch: core: 14, cta: 0 initialized @(1,0)
GPGPU-Sim uArch: Shader 0 bind to kernel 1 '_Z7cenergyifPf'
GPGPU-Sim uArch: core:  0, cta: 0 initialized @(1,0)
GPGPU-Sim uArch: core:  1, cta: 1 initialized @(2,0)
GPGPU-Sim uArch: core:  2, cta: 1 initialized @(2,0)
GPGPU-Sim uArch: core:  3, cta: 1 initialized @(2,0)
GPGPU-Sim uArch: core:  4, cta: 1 initialized @(2,0)
GPGPU-Sim uArch: core:  5, cta: 1 initialized @(2,0)
GPGPU-Sim uArch: core:  6, cta: 1 initialized @(2,0)
GPGPU-Sim uArch: core:  7, cta: 1 initialized @(2,0)
GPGPU-Sim uArch: core:  8, cta: 1 initialized @(2,0)
GPGPU-Sim uArch: core:  9, cta: 1 initialized @(2,0)
GPGPU-Sim uArch: core: 10, cta: 1 initialized @(2,0)
GPGPU-Sim uArch: core: 11, cta: 1 initialized @(2,0)
GPGPU-Sim uArch: core: 12, cta: 1 initialized @(2,0)
GPGPU-Sim uArch: core: 13, cta: 1 initialized @(2,0)
GPGPU-Sim uArch: core: 14, cta: 1 initialized @(2,0)
GPGPU-Sim uArch: core:  0, cta: 1 initialized @(2,0)
GPGPU-Sim uArch: core:  1, cta: 2 initialized @(3,0)
GPGPU-Sim uArch: core:  2, cta: 2 initialized @(3,0)
GPGPU-Sim uArch: core:  3, cta: 2 initialized @(3,0)
GPGPU-Sim uArch: core:  4, cta: 2 initialized @(3,0)
GPGPU-Sim uArch: core:  5, cta: 2 initialized @(3,0)
GPGPU-Sim uArch: core:  6, cta: 2 initialized @(3,0)
GPGPU-Sim uArch: core:  7, cta: 2 initialized @(3,0)
GPGPU-Sim uArch: core:  8, cta: 2 initialized @(3,0)
GPGPU-Sim uArch: core:  9, cta: 2 initialized @(3,0)
GPGPU-Sim uArch: core: 10, cta: 2 initialized @(3,0)
GPGPU-Sim uArch: core: 11, cta: 2 initialized @(3,0)
GPGPU-Sim uArch: core: 12, cta: 2 initialized @(3,0)
GPGPU-Sim uArch: core: 13, cta: 2 initialized @(3,0)
GPGPU-Sim uArch: core: 14, cta: 2 initialized @(3,0)
GPGPU-Sim uArch: core:  0, cta: 2 initialized @(3,0)
GPGPU-Sim uArch: core:  1, cta: 3 initialized @(4,0)
GPGPU-Sim uArch: core:  2, cta: 3 initialized @(4,0)
GPGPU-Sim uArch: core:  3, cta: 3 initialized @(4,0)
GPGPU-Sim uArch: core:  4, cta: 3 initialized @(4,0)
GPGPU-Sim uArch: core:  5, cta: 3 initialized @(4,0)
GPGPU-Sim uArch: core:  6, cta: 3 initialized @(4,0)
GPGPU-Sim uArch: core:  7, cta: 3 initialized @(4,0)
GPGPU-Sim uArch: core:  8, cta: 3 initialized @(4,0)
GPGPU-Sim uArch: core:  9, cta: 3 initialized @(4,0)
GPGPU-Sim uArch: core: 10, cta: 3 initialized @(4,0)
GPGPU-Sim uArch: core: 11, cta: 3 initialized @(4,0)
GPGPU-Sim uArch: core: 12, cta: 3 initialized @(4,0)
GPGPU-Sim uArch: core: 13, cta: 3 initialized @(4,0)
GPGPU-Sim uArch: core: 14, cta: 3 initialized @(4,0)
GPGPU-Sim uArch: core:  0, cta: 3 initialized @(4,0)
GPGPU-Sim uArch: core:  1, cta: 4 initialized @(5,0)
GPGPU-Sim uArch: core:  2, cta: 4 initialized @(5,0)
GPGPU-Sim uArch: core:  3, cta: 4 initialized @(5,0)
GPGPU-Sim uArch: core:  4, cta: 4 initialized @(5,0)
GPGPU-Sim uArch: core:  5, cta: 4 initialized @(5,0)
GPGPU-Sim uArch: core:  6, cta: 4 initialized @(5,0)
GPGPU-Sim uArch: core:  7, cta: 4 initialized @(5,0)
GPGPU-Sim uArch: core:  8, cta: 4 initialized @(5,0)
GPGPU-Sim uArch: core:  9, cta: 4 initialized @(5,0)
GPGPU-Sim uArch: core: 10, cta: 4 initialized @(5,0)
GPGPU-Sim uArch: core: 11, cta: 4 initialized @(5,0)
GPGPU-Sim uArch: core: 12, cta: 4 initialized @(5,0)
GPGPU-Sim uArch: core: 13, cta: 4 initialized @(5,0)
GPGPU-Sim uArch: core: 14, cta: 4 initialized @(5,0)
GPGPU-Sim uArch: core:  0, cta: 4 initialized @(5,0)
GPGPU-Sim uArch: core:  1, cta: 5 initialized @(6,0)
GPGPU-Sim uArch: core:  2, cta: 5 initialized @(6,0)
GPGPU-Sim uArch: core:  3, cta: 5 initialized @(6,0)
GPGPU-Sim uArch: core:  4, cta: 5 initialized @(6,0)
GPGPU-Sim uArch: core:  5, cta: 5 initialized @(6,0)
GPGPU-Sim uArch: core:  6, cta: 5 initialized @(6,0)
GPGPU-Sim uArch: core:  7, cta: 5 initialized @(6,0)
GPGPU-Sim uArch: core:  8, cta: 5 initialized @(6,0)
GPGPU-Sim uArch: core:  9, cta: 5 initialized @(6,0)
GPGPU-Sim uArch: core: 10, cta: 5 initialized @(6,0)
GPGPU-Sim uArch: core: 11, cta: 5 initialized @(6,0)
GPGPU-Sim uArch: core: 12, cta: 5 initialized @(6,0)
GPGPU-Sim uArch: core: 13, cta: 5 initialized @(6,0)
GPGPU-Sim uArch: core: 14, cta: 5 initialized @(6,0)
GPGPU-Sim uArch: core:  0, cta: 5 initialized @(6,0)
GPGPU-Sim uArch: core:  1, cta: 6 initialized @(7,0)
GPGPU-Sim uArch: core:  2, cta: 6 initialized @(7,0)
GPGPU-Sim uArch: core:  3, cta: 6 initialized @(7,0)
GPGPU-Sim uArch: core:  4, cta: 6 initialized @(7,0)
GPGPU-Sim uArch: core:  5, cta: 6 initialized @(7,0)
GPGPU-Sim uArch: core:  6, cta: 6 initialized @(7,0)
GPGPU-Sim uArch: core:  7, cta: 6 initialized @(7,0)
GPGPU-Sim uArch: core:  8, cta: 6 initialized @(7,0)
GPGPU-Sim uArch: core:  9, cta: 6 initialized @(7,0)
GPGPU-Sim uArch: core: 10, cta: 6 initialized @(7,0)
GPGPU-Sim uArch: core: 11, cta: 6 initialized @(7,0)
GPGPU-Sim uArch: core: 12, cta: 6 initialized @(7,0)
GPGPU-Sim uArch: core: 13, cta: 6 initialized @(7,0)
GPGPU-Sim uArch: core: 14, cta: 6 initialized @(7,0)
GPGPU-Sim uArch: core:  0, cta: 6 initialized @(7,0)
GPGPU-Sim uArch: core:  1, cta: 7 initialized @(8,0)
GPGPU-Sim uArch: core:  2, cta: 7 initialized @(8,0)
GPGPU-Sim uArch: core:  3, cta: 7 initialized @(8,0)
GPGPU-Sim uArch: core:  4, cta: 7 initialized @(8,0)
GPGPU-Sim uArch: core:  5, cta: 7 initialized @(8,0)
GPGPU-Sim uArch: core:  6, cta: 7 initialized @(8,0)
GPGPU-Sim uArch: core:  7, cta: 7 initialized @(8,0)
GPGPU-Sim uArch: core:  8, cta: 7 initialized @(8,0)
GPGPU-Sim uArch: core:  9, cta: 7 initialized @(8,0)
GPGPU-Sim uArch: core: 10, cta: 7 initialized @(8,0)
GPGPU-Sim uArch: core: 11, cta: 7 initialized @(8,0)
GPGPU-Sim uArch: core: 12, cta: 7 initialized @(8,0)
GPGPU-Sim uArch: core: 13, cta: 7 initialized @(8,0)
GPGPU-Sim uArch: core: 14, cta: 7 initialized @(8,0)
GPGPU-Sim uArch: core:  0, cta: 7 initialized @(8,0)
GPGPU-Sim PTX: 100000 instructions simulated : ctaid=(5,1,0) tid=(15,3,0)
GPGPU-Sim uArch: cycles simulated: 500  inst.: 107520 (ipc=215.0) sim_rate=107520 (inst/sec) elapsed = 0:0:00:01 / Thu Dec 14 14:31:47 2017
GPGPU-Sim PTX: 200000 instructions simulated : ctaid=(6,10,0) tid=(15,1,0)
GPGPU-Sim PTX: 300000 instructions simulated : ctaid=(1,13,0) tid=(15,5,0)
GPGPU-Sim PTX: 400000 instructions simulated : ctaid=(4,4,0) tid=(15,5,0)
GPGPU-Sim PTX: 500000 instructions simulated : ctaid=(4,5,0) tid=(15,3,0)
GPGPU-Sim PTX: 600000 instructions simulated : ctaid=(5,13,0) tid=(15,1,0)
GPGPU-Sim PTX: 700000 instructions simulated : ctaid=(4,14,0) tid=(15,3,0)
GPGPU-Sim PTX: 800000 instructions simulated : ctaid=(3,13,0) tid=(15,5,0)
GPGPU-Sim PTX: 900000 instructions simulated : ctaid=(7,12,0) tid=(15,5,0)
GPGPU-Sim PTX: 1000000 instructions simulated : ctaid=(3,1,0) tid=(15,1,0)
GPGPU-Sim PTX: 1100000 instructions simulated : ctaid=(2,8,0) tid=(15,3,0)
GPGPU-Sim PTX: 1200000 instructions simulated : ctaid=(0,13,0) tid=(15,1,0)
GPGPU-Sim uArch: cycles simulated: 3000  inst.: 1266752 (ipc=422.3) sim_rate=633376 (inst/sec) elapsed = 0:0:00:02 / Thu Dec 14 14:31:49 2017
GPGPU-Sim PTX: 1300000 instructions simulated : ctaid=(4,2,0) tid=(15,1,0)
GPGPU-Sim PTX: 1400000 instructions simulated : ctaid=(3,0,0) tid=(15,5,0)
GPGPU-Sim PTX: 1500000 instructions simulated : ctaid=(3,9,0) tid=(15,5,0)
GPGPU-Sim PTX: 1600000 instructions simulated : ctaid=(0,13,0) tid=(15,5,0)
GPGPU-Sim PTX: 1700000 instructions simulated : ctaid=(7,10,0) tid=(15,5,0)
GPGPU-Sim PTX: 1800000 instructions simulated : ctaid=(6,0,0) tid=(15,1,0)
GPGPU-Sim uArch: cycles simulated: 4000  inst.: 1818752 (ipc=454.7) sim_rate=606250 (inst/sec) elapsed = 0:0:00:03 / Thu Dec 14 14:31:50 2017
GPGPU-Sim PTX: 1900000 instructions simulated : ctaid=(7,3,0) tid=(15,3,0)
GPGPU-Sim PTX: 2000000 instructions simulated : ctaid=(2,1,0) tid=(15,7,0)
GPGPU-Sim PTX: 2100000 instructions simulated : ctaid=(3,7,0) tid=(15,5,0)
GPGPU-Sim PTX: 2200000 instructions simulated : ctaid=(0,12,0) tid=(15,5,0)
GPGPU-Sim PTX: 2300000 instructions simulated : ctaid=(4,12,0) tid=(15,7,0)
GPGPU-Sim PTX: 2400000 instructions simulated : ctaid=(4,13,0) tid=(15,5,0)
GPGPU-Sim uArch: cycles simulated: 5000  inst.: 2397824 (ipc=479.6) sim_rate=599456 (inst/sec) elapsed = 0:0:00:04 / Thu Dec 14 14:31:51 2017
GPGPU-Sim PTX: 2500000 instructions simulated : ctaid=(7,8,0) tid=(15,3,0)
GPGPU-Sim PTX: 2600000 instructions simulated : ctaid=(2,5,0) tid=(15,1,0)
GPGPU-Sim PTX: 2700000 instructions simulated : ctaid=(7,8,0) tid=(15,1,0)
GPGPU-Sim PTX: 2800000 instructions simulated : ctaid=(4,6,0) tid=(15,5,0)
GPGPU-Sim PTX: 2900000 instructions simulated : ctaid=(0,14,0) tid=(15,1,0)
GPGPU-Sim PTX: 3000000 instructions simulated : ctaid=(2,7,0) tid=(15,5,0)
GPGPU-Sim PTX: 3100000 instructions simulated : ctaid=(4,1,0) tid=(15,3,0)
GPGPU-Sim PTX: 3200000 instructions simulated : ctaid=(6,8,0) tid=(15,3,0)
GPGPU-Sim uArch: cycles simulated: 6500  inst.: 3244992 (ipc=499.2) sim_rate=648998 (inst/sec) elapsed = 0:0:00:05 / Thu Dec 14 14:31:52 2017
GPGPU-Sim PTX: 3300000 instructions simulated : ctaid=(7,12,0) tid=(15,5,0)
GPGPU-Sim PTX: 3400000 instructions simulated : ctaid=(4,1,0) tid=(15,1,0)
GPGPU-Sim PTX: 3500000 instructions simulated : ctaid=(6,4,0) tid=(15,1,0)
GPGPU-Sim PTX: 3600000 instructions simulated : ctaid=(7,10,0) tid=(15,5,0)
GPGPU-Sim PTX: 3700000 instructions simulated : ctaid=(5,6,0) tid=(15,1,0)
GPGPU-Sim PTX: 3800000 instructions simulated : ctaid=(7,11,0) tid=(15,3,0)
GPGPU-Sim uArch: cycles simulated: 7500  inst.: 3818432 (ipc=509.1) sim_rate=636405 (inst/sec) elapsed = 0:0:00:06 / Thu Dec 14 14:31:53 2017
GPGPU-Sim PTX: 3900000 instructions simulated : ctaid=(6,3,0) tid=(15,5,0)
GPGPU-Sim PTX: 4000000 instructions simulated : ctaid=(5,14,0) tid=(15,7,0)
GPGPU-Sim PTX: 4100000 instructions simulated : ctaid=(2,1,0) tid=(15,5,0)
GPGPU-Sim PTX: 4200000 instructions simulated : ctaid=(5,5,0) tid=(15,3,0)
GPGPU-Sim PTX: 4300000 instructions simulated : ctaid=(5,8,0) tid=(15,3,0)
GPGPU-Sim PTX: 4400000 instructions simulated : ctaid=(4,7,0) tid=(15,5,0)
GPGPU-Sim PTX: 4500000 instructions simulated : ctaid=(0,3,0) tid=(15,5,0)
GPGPU-Sim PTX: 4600000 instructions simulated : ctaid=(4,6,0) tid=(15,3,0)
GPGPU-Sim PTX: 4700000 instructions simulated : ctaid=(7,9,0) tid=(15,3,0)
GPGPU-Sim uArch: cycles simulated: 9000  inst.: 4675712 (ipc=519.5) sim_rate=667958 (inst/sec) elapsed = 0:0:00:07 / Thu Dec 14 14:31:54 2017
GPGPU-Sim PTX: 4800000 instructions simulated : ctaid=(2,9,0) tid=(15,5,0)
GPGPU-Sim PTX: 4900000 instructions simulated : ctaid=(5,3,0) tid=(15,5,0)
GPGPU-Sim PTX: 5000000 instructions simulated : ctaid=(6,10,0) tid=(15,3,0)
GPGPU-Sim PTX: 5100000 instructions simulated : ctaid=(0,9,0) tid=(15,1,0)
GPGPU-Sim PTX: 5200000 instructions simulated : ctaid=(0,3,0) tid=(15,5,0)
GPGPU-Sim uArch: cycles simulated: 10000  inst.: 5238624 (ipc=523.9) sim_rate=654828 (inst/sec) elapsed = 0:0:00:08 / Thu Dec 14 14:31:55 2017
GPGPU-Sim PTX: 5300000 instructions simulated : ctaid=(7,12,0) tid=(15,1,0)
GPGPU-Sim PTX: 5400000 instructions simulated : ctaid=(5,6,0) tid=(15,3,0)
GPGPU-Sim PTX: 5500000 instructions simulated : ctaid=(3,10,0) tid=(15,5,0)
GPGPU-Sim PTX: 5600000 instructions simulated : ctaid=(1,9,0) tid=(15,7,0)
GPGPU-Sim PTX: 5700000 instructions simulated : ctaid=(1,10,0) tid=(15,7,0)
GPGPU-Sim PTX: 5800000 instructions simulated : ctaid=(5,10,0) tid=(15,3,0)
GPGPU-Sim PTX: 5900000 instructions simulated : ctaid=(6,6,0) tid=(15,7,0)
GPGPU-Sim PTX: 6000000 instructions simulated : ctaid=(4,1,0) tid=(15,3,0)
GPGPU-Sim PTX: 6100000 instructions simulated : ctaid=(4,10,0) tid=(15,5,0)
GPGPU-Sim uArch: cycles simulated: 11500  inst.: 6095936 (ipc=530.1) sim_rate=677326 (inst/sec) elapsed = 0:0:00:09 / Thu Dec 14 14:31:56 2017
GPGPU-Sim PTX: 6200000 instructions simulated : ctaid=(4,14,0) tid=(15,7,0)
GPGPU-Sim PTX: 6300000 instructions simulated : ctaid=(1,14,0) tid=(15,3,0)
GPGPU-Sim PTX: 6400000 instructions simulated : ctaid=(0,0,0) tid=(15,1,0)
GPGPU-Sim PTX: 6500000 instructions simulated : ctaid=(0,8,0) tid=(15,5,0)
GPGPU-Sim PTX: 6600000 instructions simulated : ctaid=(6,13,0) tid=(15,1,0)
GPGPU-Sim uArch: cycles simulated: 12500  inst.: 6669920 (ipc=533.6) sim_rate=666992 (inst/sec) elapsed = 0:0:00:10 / Thu Dec 14 14:31:57 2017
GPGPU-Sim PTX: 6700000 instructions simulated : ctaid=(3,7,0) tid=(15,5,0)
GPGPU-Sim PTX: 6800000 instructions simulated : ctaid=(4,8,0) tid=(15,5,0)
GPGPU-Sim PTX: 6900000 instructions simulated : ctaid=(0,6,0) tid=(15,7,0)
GPGPU-Sim PTX: 7000000 instructions simulated : ctaid=(2,13,0) tid=(15,1,0)
GPGPU-Sim PTX: 7100000 instructions simulated : ctaid=(7,14,0) tid=(15,7,0)
GPGPU-Sim PTX: 7200000 instructions simulated : ctaid=(2,4,0) tid=(15,3,0)
GPGPU-Sim uArch: cycles simulated: 13500  inst.: 7237888 (ipc=536.1) sim_rate=657989 (inst/sec) elapsed = 0:0:00:11 / Thu Dec 14 14:31:58 2017
GPGPU-Sim PTX: 7300000 instructions simulated : ctaid=(0,7,0) tid=(15,7,0)
GPGPU-Sim PTX: 7400000 instructions simulated : ctaid=(0,10,0) tid=(15,7,0)
GPGPU-Sim PTX: 7500000 instructions simulated : ctaid=(6,11,0) tid=(15,3,0)
GPGPU-Sim PTX: 7600000 instructions simulated : ctaid=(4,2,0) tid=(15,1,0)
GPGPU-Sim PTX: 7700000 instructions simulated : ctaid=(2,9,0) tid=(15,1,0)
GPGPU-Sim PTX: 7800000 instructions simulated : ctaid=(3,5,0) tid=(15,5,0)
GPGPU-Sim PTX: 7900000 instructions simulated : ctaid=(4,7,0) tid=(15,1,0)
GPGPU-Sim PTX: 8000000 instructions simulated : ctaid=(2,10,0) tid=(15,3,0)
GPGPU-Sim PTX: 8100000 instructions simulated : ctaid=(5,11,0) tid=(15,5,0)
GPGPU-Sim uArch: cycles simulated: 15000  inst.: 8095968 (ipc=539.7) sim_rate=674664 (inst/sec) elapsed = 0:0:00:12 / Thu Dec 14 14:31:59 2017
GPGPU-Sim PTX: 8200000 instructions simulated : ctaid=(3,9,0) tid=(15,5,0)
GPGPU-Sim PTX: 8300000 instructions simulated : ctaid=(3,0,0) tid=(15,1,0)
GPGPU-Sim PTX: 8400000 instructions simulated : ctaid=(7,14,0) tid=(15,1,0)
GPGPU-Sim PTX: 8500000 instructions simulated : ctaid=(3,14,0) tid=(15,5,0)
GPGPU-Sim PTX: 8600000 instructions simulated : ctaid=(0,9,0) tid=(15,5,0)
GPGPU-Sim uArch: cycles simulated: 16000  inst.: 8656576 (ipc=541.0) sim_rate=665890 (inst/sec) elapsed = 0:0:00:13 / Thu Dec 14 14:32:00 2017
GPGPU-Sim PTX: 8700000 instructions simulated : ctaid=(0,9,0) tid=(15,3,0)
GPGPU-Sim PTX: 8800000 instructions simulated : ctaid=(4,6,0) tid=(15,7,0)
GPGPU-Sim PTX: 8900000 instructions simulated : ctaid=(0,7,0) tid=(15,1,0)
GPGPU-Sim PTX: 9000000 instructions simulated : ctaid=(7,11,0) tid=(15,7,0)
GPGPU-Sim PTX: 9100000 instructions simulated : ctaid=(3,6,0) tid=(15,1,0)
GPGPU-Sim PTX: 9200000 instructions simulated : ctaid=(2,5,0) tid=(15,1,0)
GPGPU-Sim PTX: 9300000 instructions simulated : ctaid=(5,0,0) tid=(15,3,0)
GPGPU-Sim PTX: 9400000 instructions simulated : ctaid=(1,0,0) tid=(15,5,0)
GPGPU-Sim PTX: 9500000 instructions simulated : ctaid=(3,0,0) tid=(15,1,0)
GPGPU-Sim uArch: cycles simulated: 17500  inst.: 9513856 (ipc=543.6) sim_rate=679561 (inst/sec) elapsed = 0:0:00:14 / Thu Dec 14 14:32:01 2017
GPGPU-Sim PTX: 9600000 instructions simulated : ctaid=(4,9,0) tid=(15,7,0)
GPGPU-Sim PTX: 9700000 instructions simulated : ctaid=(3,12,0) tid=(15,5,0)
GPGPU-Sim PTX: 9800000 instructions simulated : ctaid=(2,9,0) tid=(15,1,0)
GPGPU-Sim PTX: 9900000 instructions simulated : ctaid=(5,12,0) tid=(15,7,0)
GPGPU-Sim PTX: 10000000 instructions simulated : ctaid=(0,9,0) tid=(15,1,0)
GPGPU-Sim PTX: 10100000 instructions simulated : ctaid=(2,0,0) tid=(15,3,0)
GPGPU-Sim uArch: cycles simulated: 18500  inst.: 10090240 (ipc=545.4) sim_rate=672682 (inst/sec) elapsed = 0:0:00:15 / Thu Dec 14 14:32:02 2017
GPGPU-Sim PTX: 10200000 instructions simulated : ctaid=(6,9,0) tid=(15,1,0)
GPGPU-Sim PTX: 10300000 instructions simulated : ctaid=(1,10,0) tid=(15,3,0)
GPGPU-Sim PTX: 10400000 instructions simulated : ctaid=(0,7,0) tid=(15,5,0)
GPGPU-Sim PTX: 10500000 instructions simulated : ctaid=(7,12,0) tid=(15,5,0)
GPGPU-Sim PTX: 10600000 instructions simulated : ctaid=(7,4,0) tid=(15,5,0)
GPGPU-Sim PTX: 10700000 instructions simulated : ctaid=(6,9,0) tid=(15,7,0)
GPGPU-Sim PTX: 10800000 instructions simulated : ctaid=(1,6,0) tid=(15,5,0)
GPGPU-Sim PTX: 10900000 instructions simulated : ctaid=(3,1,0) tid=(15,7,0)
GPGPU-Sim uArch: cycles simulated: 20000  inst.: 10946752 (ipc=547.3) sim_rate=684172 (inst/sec) elapsed = 0:0:00:16 / Thu Dec 14 14:32:03 2017
GPGPU-Sim PTX: 11000000 instructions simulated : ctaid=(4,2,0) tid=(15,7,0)
GPGPU-Sim PTX: 11100000 instructions simulated : ctaid=(4,0,0) tid=(15,7,0)
GPGPU-Sim PTX: 11200000 instructions simulated : ctaid=(6,2,0) tid=(15,1,0)
GPGPU-Sim PTX: 11300000 instructions simulated : ctaid=(0,13,0) tid=(15,3,0)
GPGPU-Sim PTX: 11400000 instructions simulated : ctaid=(2,9,0) tid=(15,1,0)
GPGPU-Sim PTX: 11500000 instructions simulated : ctaid=(0,0,0) tid=(15,7,0)
GPGPU-Sim uArch: cycles simulated: 21000  inst.: 11508576 (ipc=548.0) sim_rate=676975 (inst/sec) elapsed = 0:0:00:17 / Thu Dec 14 14:32:04 2017
GPGPU-Sim PTX: 11600000 instructions simulated : ctaid=(2,13,0) tid=(15,5,0)
GPGPU-Sim PTX: 11700000 instructions simulated : ctaid=(5,1,0) tid=(15,5,0)
GPGPU-Sim PTX: 11800000 instructions simulated : ctaid=(4,6,0) tid=(15,5,0)
GPGPU-Sim PTX: 11900000 instructions simulated : ctaid=(0,14,0) tid=(15,1,0)
GPGPU-Sim PTX: 12000000 instructions simulated : ctaid=(1,8,0) tid=(15,3,0)
GPGPU-Sim PTX: 12100000 instructions simulated : ctaid=(5,2,0) tid=(15,5,0)
GPGPU-Sim uArch: cycles simulated: 22000  inst.: 12086272 (ipc=549.4) sim_rate=671459 (inst/sec) elapsed = 0:0:00:18 / Thu Dec 14 14:32:05 2017
GPGPU-Sim PTX: 12200000 instructions simulated : ctaid=(1,13,0) tid=(15,1,0)
GPGPU-Sim PTX: 12300000 instructions simulated : ctaid=(7,1,0) tid=(15,1,0)
GPGPU-Sim PTX: 12400000 instructions simulated : ctaid=(5,7,0) tid=(15,1,0)
GPGPU-Sim PTX: 12500000 instructions simulated : ctaid=(2,14,0) tid=(15,5,0)
GPGPU-Sim PTX: 12600000 instructions simulated : ctaid=(4,3,0) tid=(15,7,0)
GPGPU-Sim PTX: 12700000 instructions simulated : ctaid=(4,6,0) tid=(15,5,0)
GPGPU-Sim PTX: 12800000 instructions simulated : ctaid=(0,9,0) tid=(15,5,0)
GPGPU-Sim PTX: 12900000 instructions simulated : ctaid=(2,5,0) tid=(15,7,0)
GPGPU-Sim uArch: cycles simulated: 23500  inst.: 12937568 (ipc=550.5) sim_rate=680924 (inst/sec) elapsed = 0:0:00:19 / Thu Dec 14 14:32:06 2017
GPGPU-Sim PTX: 13000000 instructions simulated : ctaid=(4,2,0) tid=(15,7,0)
GPGPU-Sim PTX: 13100000 instructions simulated : ctaid=(0,3,0) tid=(15,5,0)
GPGPU-Sim PTX: 13200000 instructions simulated : ctaid=(6,0,0) tid=(15,1,0)
GPGPU-Sim PTX: 13300000 instructions simulated : ctaid=(6,4,0) tid=(15,1,0)
GPGPU-Sim PTX: 13400000 instructions simulated : ctaid=(7,11,0) tid=(15,5,0)
GPGPU-Sim PTX: 13500000 instructions simulated : ctaid=(0,9,0) tid=(15,1,0)
GPGPU-Sim uArch: cycles simulated: 24500  inst.: 13504864 (ipc=551.2) sim_rate=675243 (inst/sec) elapsed = 0:0:00:20 / Thu Dec 14 14:32:07 2017
GPGPU-Sim PTX: 13600000 instructions simulated : ctaid=(6,14,0) tid=(15,5,0)
GPGPU-Sim PTX: 13700000 instructions simulated : ctaid=(5,1,0) tid=(15,3,0)
GPGPU-Sim PTX: 13800000 instructions simulated : ctaid=(2,11,0) tid=(15,3,0)
GPGPU-Sim PTX: 13900000 instructions simulated : ctaid=(0,1,0) tid=(15,7,0)
GPGPU-Sim PTX: 14000000 instructions simulated : ctaid=(7,4,0) tid=(15,5,0)
GPGPU-Sim PTX: 14100000 instructions simulated : ctaid=(7,0,0) tid=(15,7,0)
GPGPU-Sim PTX: 14200000 instructions simulated : ctaid=(0,12,0) tid=(15,7,0)
GPGPU-Sim PTX: 14300000 instructions simulated : ctaid=(5,8,0) tid=(15,5,0)
GPGPU-Sim uArch: cycles simulated: 26000  inst.: 14360640 (ipc=552.3) sim_rate=683840 (inst/sec) elapsed = 0:0:00:21 / Thu Dec 14 14:32:08 2017
GPGPU-Sim PTX: 14400000 instructions simulated : ctaid=(0,11,0) tid=(15,3,0)
GPGPU-Sim PTX: 14500000 instructions simulated : ctaid=(1,12,0) tid=(15,5,0)
GPGPU-Sim PTX: 14600000 instructions simulated : ctaid=(5,8,0) tid=(15,1,0)
GPGPU-Sim PTX: 14700000 instructions simulated : ctaid=(2,10,0) tid=(15,1,0)
GPGPU-Sim PTX: 14800000 instructions simulated : ctaid=(5,10,0) tid=(15,1,0)
GPGPU-Sim PTX: 14900000 instructions simulated : ctaid=(7,8,0) tid=(15,1,0)
GPGPU-Sim uArch: cycles simulated: 27000  inst.: 14933216 (ipc=553.1) sim_rate=678782 (inst/sec) elapsed = 0:0:00:22 / Thu Dec 14 14:32:09 2017
GPGPU-Sim PTX: 15000000 instructions simulated : ctaid=(7,6,0) tid=(15,1,0)
GPGPU-Sim PTX: 15100000 instructions simulated : ctaid=(7,13,0) tid=(15,3,0)
GPGPU-Sim PTX: 15200000 instructions simulated : ctaid=(7,7,0) tid=(15,5,0)
GPGPU-Sim PTX: 15300000 instructions simulated : ctaid=(1,3,0) tid=(15,1,0)
GPGPU-Sim PTX: 15400000 instructions simulated : ctaid=(3,1,0) tid=(15,1,0)
GPGPU-Sim PTX: 15500000 instructions simulated : ctaid=(6,7,0) tid=(15,1,0)
GPGPU-Sim PTX: 15600000 instructions simulated : ctaid=(0,5,0) tid=(15,7,0)
GPGPU-Sim PTX: 15700000 instructions simulated : ctaid=(1,7,0) tid=(15,7,0)
GPGPU-Sim PTX: 15800000 instructions simulated : ctaid=(7,8,0) tid=(15,1,0)
GPGPU-Sim uArch: cycles simulated: 28500  inst.: 15794016 (ipc=554.2) sim_rate=686696 (inst/sec) elapsed = 0:0:00:23 / Thu Dec 14 14:32:10 2017
GPGPU-Sim PTX: 15900000 instructions simulated : ctaid=(0,14,0) tid=(15,5,0)
GPGPU-Sim PTX: 16000000 instructions simulated : ctaid=(7,0,0) tid=(15,7,0)
GPGPU-Sim PTX: 16100000 instructions simulated : ctaid=(4,5,0) tid=(15,1,0)
GPGPU-Sim PTX: 16200000 instructions simulated : ctaid=(4,6,0) tid=(15,5,0)
GPGPU-Sim PTX: 16300000 instructions simulated : ctaid=(1,6,0) tid=(15,1,0)
GPGPU-Sim uArch: cycles simulated: 29500  inst.: 16352224 (ipc=554.3) sim_rate=681342 (inst/sec) elapsed = 0:0:00:24 / Thu Dec 14 14:32:11 2017
GPGPU-Sim PTX: 16400000 instructions simulated : ctaid=(1,7,0) tid=(15,3,0)
GPGPU-Sim PTX: 16500000 instructions simulated : ctaid=(1,10,0) tid=(15,7,0)
GPGPU-Sim PTX: 16600000 instructions simulated : ctaid=(6,7,0) tid=(15,1,0)
GPGPU-Sim PTX: 16700000 instructions simulated : ctaid=(3,0,0) tid=(15,5,0)
GPGPU-Sim PTX: 16800000 instructions simulated : ctaid=(7,7,0) tid=(15,3,0)
GPGPU-Sim PTX: 16900000 instructions simulated : ctaid=(6,2,0) tid=(15,3,0)
GPGPU-Sim uArch: cycles simulated: 30500  inst.: 16929120 (ipc=555.1) sim_rate=677164 (inst/sec) elapsed = 0:0:00:25 / Thu Dec 14 14:32:12 2017
GPGPU-Sim PTX: 17000000 instructions simulated : ctaid=(2,10,0) tid=(15,7,0)
GPGPU-Sim PTX: 17100000 instructions simulated : ctaid=(6,1,0) tid=(15,5,0)
GPGPU-Sim PTX: 17200000 instructions simulated : ctaid=(1,0,0) tid=(15,3,0)
GPGPU-Sim PTX: 17300000 instructions simulated : ctaid=(5,8,0) tid=(15,5,0)
GPGPU-Sim PTX: 17400000 instructions simulated : ctaid=(5,10,0) tid=(15,5,0)
GPGPU-Sim PTX: 17500000 instructions simulated : ctaid=(0,9,0) tid=(15,5,0)
GPGPU-Sim PTX: 17600000 instructions simulated : ctaid=(4,11,0) tid=(15,5,0)
GPGPU-Sim PTX: 17700000 instructions simulated : ctaid=(4,1,0) tid=(15,5,0)
GPGPU-Sim PTX: 17800000 instructions simulated : ctaid=(0,9,0) tid=(15,5,0)
GPGPU-Sim uArch: cycles simulated: 32000  inst.: 17782496 (ipc=555.7) sim_rate=683942 (inst/sec) elapsed = 0:0:00:26 / Thu Dec 14 14:32:13 2017
GPGPU-Sim PTX: 17900000 instructions simulated : ctaid=(0,7,0) tid=(15,7,0)
GPGPU-Sim PTX: 18000000 instructions simulated : ctaid=(5,4,0) tid=(15,1,0)
GPGPU-Sim PTX: 18100000 instructions simulated : ctaid=(7,12,0) tid=(15,7,0)
GPGPU-Sim PTX: 18200000 instructions simulated : ctaid=(4,14,0) tid=(15,3,0)
GPGPU-Sim PTX: 18300000 instructions simulated : ctaid=(3,11,0) tid=(15,5,0)
GPGPU-Sim uArch: cycles simulated: 33000  inst.: 18355008 (ipc=556.2) sim_rate=679815 (inst/sec) elapsed = 0:0:00:27 / Thu Dec 14 14:32:14 2017
GPGPU-Sim PTX: 18400000 instructions simulated : ctaid=(4,1,0) tid=(15,1,0)
GPGPU-Sim PTX: 18500000 instructions simulated : ctaid=(2,5,0) tid=(15,7,0)
GPGPU-Sim PTX: 18600000 instructions simulated : ctaid=(3,2,0) tid=(15,1,0)
GPGPU-Sim PTX: 18700000 instructions simulated : ctaid=(6,0,0) tid=(15,5,0)
GPGPU-Sim PTX: 18800000 instructions simulated : ctaid=(6,8,0) tid=(15,7,0)
GPGPU-Sim PTX: 18900000 instructions simulated : ctaid=(6,11,0) tid=(15,7,0)
GPGPU-Sim PTX: 19000000 instructions simulated : ctaid=(3,13,0) tid=(15,1,0)
GPGPU-Sim PTX: 19100000 instructions simulated : ctaid=(7,14,0) tid=(15,1,0)
GPGPU-Sim PTX: 19200000 instructions simulated : ctaid=(1,8,0) tid=(15,7,0)
GPGPU-Sim uArch: cycles simulated: 34500  inst.: 19208288 (ipc=556.8) sim_rate=686010 (inst/sec) elapsed = 0:0:00:28 / Thu Dec 14 14:32:15 2017
GPGPU-Sim PTX: 19300000 instructions simulated : ctaid=(5,7,0) tid=(15,5,0)
GPGPU-Sim PTX: 19400000 instructions simulated : ctaid=(0,14,0) tid=(15,3,0)
GPGPU-Sim PTX: 19500000 instructions simulated : ctaid=(6,2,0) tid=(15,5,0)
GPGPU-Sim PTX: 19600000 instructions simulated : ctaid=(1,3,0) tid=(15,1,0)
GPGPU-Sim PTX: 19700000 instructions simulated : ctaid=(7,11,0) tid=(15,7,0)
GPGPU-Sim PTX: 19800000 instructions simulated : ctaid=(2,12,0) tid=(15,5,0)
GPGPU-Sim uArch: cycles simulated: 35500  inst.: 19783488 (ipc=557.3) sim_rate=682189 (inst/sec) elapsed = 0:0:00:29 / Thu Dec 14 14:32:16 2017
GPGPU-Sim PTX: 19900000 instructions simulated : ctaid=(4,10,0) tid=(15,3,0)
GPGPU-Sim PTX: 20000000 instructions simulated : ctaid=(7,12,0) tid=(15,5,0)
GPGPU-Sim PTX: 20100000 instructions simulated : ctaid=(1,1,0) tid=(15,7,0)
GPGPU-Sim PTX: 20200000 instructions simulated : ctaid=(7,7,0) tid=(15,7,0)
GPGPU-Sim PTX: 20300000 instructions simulated : ctaid=(4,7,0) tid=(15,7,0)
GPGPU-Sim PTX: 20400000 instructions simulated : ctaid=(1,11,0) tid=(15,5,0)
GPGPU-Sim PTX: 20500000 instructions simulated : ctaid=(2,7,0) tid=(15,5,0)
GPGPU-Sim PTX: 20600000 instructions simulated : ctaid=(2,8,0) tid=(15,1,0)
GPGPU-Sim uArch: cycles simulated: 37000  inst.: 20635360 (ipc=557.7) sim_rate=687845 (inst/sec) elapsed = 0:0:00:30 / Thu Dec 14 14:32:17 2017
GPGPU-Sim PTX: 20700000 instructions simulated : ctaid=(2,11,0) tid=(15,5,0)
GPGPU-Sim PTX: 20800000 instructions simulated : ctaid=(6,3,0) tid=(15,5,0)
GPGPU-Sim PTX: 20900000 instructions simulated : ctaid=(5,3,0) tid=(15,3,0)
GPGPU-Sim PTX: 21000000 instructions simulated : ctaid=(5,0,0) tid=(15,7,0)
GPGPU-Sim PTX: 21100000 instructions simulated : ctaid=(7,4,0) tid=(15,7,0)
GPGPU-Sim PTX: 21200000 instructions simulated : ctaid=(0,3,0) tid=(15,5,0)
GPGPU-Sim uArch: cycles simulated: 38000  inst.: 21199200 (ipc=557.9) sim_rate=683845 (inst/sec) elapsed = 0:0:00:31 / Thu Dec 14 14:32:18 2017
GPGPU-Sim PTX: 21300000 instructions simulated : ctaid=(5,10,0) tid=(15,3,0)
GPGPU-Sim PTX: 21400000 instructions simulated : ctaid=(2,4,0) tid=(15,1,0)
GPGPU-Sim PTX: 21500000 instructions simulated : ctaid=(2,2,0) tid=(15,3,0)
GPGPU-Sim PTX: 21600000 instructions simulated : ctaid=(3,8,0) tid=(15,1,0)
GPGPU-Sim PTX: 21700000 instructions simulated : ctaid=(0,14,0) tid=(15,1,0)
GPGPU-Sim PTX: 21800000 instructions simulated : ctaid=(7,11,0) tid=(15,3,0)
GPGPU-Sim PTX: 21900000 instructions simulated : ctaid=(0,13,0) tid=(15,3,0)
GPGPU-Sim PTX: 22000000 instructions simulated : ctaid=(7,3,0) tid=(15,3,0)
GPGPU-Sim uArch: cycles simulated: 39500  inst.: 22054752 (ipc=558.3) sim_rate=689211 (inst/sec) elapsed = 0:0:00:32 / Thu Dec 14 14:32:19 2017
GPGPU-Sim PTX: 22100000 instructions simulated : ctaid=(2,5,0) tid=(15,7,0)
GPGPU-Sim PTX: 22200000 instructions simulated : ctaid=(0,14,0) tid=(15,5,0)
GPGPU-Sim PTX: 22300000 instructions simulated : ctaid=(7,8,0) tid=(15,5,0)
GPGPU-Sim PTX: 22400000 instructions simulated : ctaid=(4,9,0) tid=(15,1,0)
GPGPU-Sim PTX: 22500000 instructions simulated : ctaid=(7,10,0) tid=(15,5,0)
GPGPU-Sim PTX: 22600000 instructions simulated : ctaid=(6,7,0) tid=(15,7,0)
GPGPU-Sim uArch: cycles simulated: 40500  inst.: 22627072 (ipc=558.7) sim_rate=685668 (inst/sec) elapsed = 0:0:00:33 / Thu Dec 14 14:32:20 2017
GPGPU-Sim PTX: 22700000 instructions simulated : ctaid=(1,2,0) tid=(15,5,0)
GPGPU-Sim PTX: 22800000 instructions simulated : ctaid=(2,8,0) tid=(15,3,0)
GPGPU-Sim PTX: 22900000 instructions simulated : ctaid=(7,4,0) tid=(15,3,0)
GPGPU-Sim PTX: 23000000 instructions simulated : ctaid=(6,11,0) tid=(15,5,0)
GPGPU-Sim PTX: 23100000 instructions simulated : ctaid=(1,5,0) tid=(15,5,0)
GPGPU-Sim PTX: 23200000 instructions simulated : ctaid=(7,1,0) tid=(15,1,0)
GPGPU-Sim PTX: 23300000 instructions simulated : ctaid=(5,14,0) tid=(15,3,0)
GPGPU-Sim PTX: 23400000 instructions simulated : ctaid=(2,5,0) tid=(15,7,0)
GPGPU-Sim PTX: 23500000 instructions simulated : ctaid=(5,12,0) tid=(15,1,0)
GPGPU-Sim uArch: cycles simulated: 42000  inst.: 23482464 (ipc=559.1) sim_rate=690660 (inst/sec) elapsed = 0:0:00:34 / Thu Dec 14 14:32:21 2017
GPGPU-Sim PTX: 23600000 instructions simulated : ctaid=(3,4,0) tid=(15,7,0)
GPGPU-Sim PTX: 23700000 instructions simulated : ctaid=(2,0,0) tid=(15,7,0)
GPGPU-Sim PTX: 23800000 instructions simulated : ctaid=(3,11,0) tid=(15,1,0)
GPGPU-Sim PTX: 23900000 instructions simulated : ctaid=(5,5,0) tid=(15,5,0)
GPGPU-Sim PTX: 24000000 instructions simulated : ctaid=(3,5,0) tid=(15,5,0)
GPGPU-Sim uArch: cycles simulated: 43000  inst.: 24052192 (ipc=559.4) sim_rate=687205 (inst/sec) elapsed = 0:0:00:35 / Thu Dec 14 14:32:22 2017
GPGPU-Sim PTX: 24100000 instructions simulated : ctaid=(0,9,0) tid=(15,1,0)
GPGPU-Sim PTX: 24200000 instructions simulated : ctaid=(2,8,0) tid=(15,1,0)
GPGPU-Sim PTX: 24300000 instructions simulated : ctaid=(4,2,0) tid=(15,1,0)
GPGPU-Sim PTX: 24400000 instructions simulated : ctaid=(6,10,0) tid=(15,5,0)
GPGPU-Sim PTX: 24500000 instructions simulated : ctaid=(3,14,0) tid=(15,5,0)
GPGPU-Sim PTX: 24600000 instructions simulated : ctaid=(1,2,0) tid=(15,1,0)
GPGPU-Sim PTX: 24700000 instructions simulated : ctaid=(0,3,0) tid=(15,7,0)
GPGPU-Sim PTX: 24800000 instructions simulated : ctaid=(5,0,0) tid=(15,1,0)
GPGPU-Sim PTX: 24900000 instructions simulated : ctaid=(0,11,0) tid=(15,1,0)
GPGPU-Sim uArch: cycles simulated: 44500  inst.: 24907552 (ipc=559.7) sim_rate=691876 (inst/sec) elapsed = 0:0:00:36 / Thu Dec 14 14:32:23 2017
GPGPU-Sim PTX: 25000000 instructions simulated : ctaid=(1,2,0) tid=(15,5,0)
GPGPU-Sim PTX: 25100000 instructions simulated : ctaid=(2,12,0) tid=(15,5,0)
GPGPU-Sim PTX: 25200000 instructions simulated : ctaid=(6,2,0) tid=(15,5,0)
GPGPU-Sim PTX: 25300000 instructions simulated : ctaid=(3,4,0) tid=(15,7,0)
GPGPU-Sim PTX: 25400000 instructions simulated : ctaid=(6,13,0) tid=(15,5,0)
GPGPU-Sim uArch: cycles simulated: 45500  inst.: 25471520 (ipc=559.8) sim_rate=688419 (inst/sec) elapsed = 0:0:00:37 / Thu Dec 14 14:32:24 2017
GPGPU-Sim PTX: 25500000 instructions simulated : ctaid=(0,1,0) tid=(15,7,0)
GPGPU-Sim PTX: 25600000 instructions simulated : ctaid=(6,1,0) tid=(15,5,0)
GPGPU-Sim PTX: 25700000 instructions simulated : ctaid=(5,13,0) tid=(15,1,0)
GPGPU-Sim PTX: 25800000 instructions simulated : ctaid=(3,12,0) tid=(15,1,0)
GPGPU-Sim PTX: 25900000 instructions simulated : ctaid=(6,2,0) tid=(15,5,0)
GPGPU-Sim PTX: 26000000 instructions simulated : ctaid=(0,11,0) tid=(15,1,0)
GPGPU-Sim PTX: 26100000 instructions simulated : ctaid=(6,9,0) tid=(15,1,0)
GPGPU-Sim PTX: 26200000 instructions simulated : ctaid=(0,12,0) tid=(15,7,0)
GPGPU-Sim PTX: 26300000 instructions simulated : ctaid=(3,1,0) tid=(15,5,0)
GPGPU-Sim uArch: cycles simulated: 47000  inst.: 26325632 (ipc=560.1) sim_rate=692779 (inst/sec) elapsed = 0:0:00:38 / Thu Dec 14 14:32:25 2017
GPGPU-Sim PTX: 26400000 instructions simulated : ctaid=(5,10,0) tid=(15,3,0)
GPGPU-Sim PTX: 26500000 instructions simulated : ctaid=(5,5,0) tid=(15,3,0)
GPGPU-Sim PTX: 26600000 instructions simulated : ctaid=(5,11,0) tid=(15,7,0)
GPGPU-Sim PTX: 26700000 instructions simulated : ctaid=(5,12,0) tid=(15,1,0)
GPGPU-Sim PTX: 26800000 instructions simulated : ctaid=(3,12,0) tid=(15,7,0)
GPGPU-Sim PTX: 26900000 instructions simulated : ctaid=(5,13,0) tid=(15,1,0)
GPGPU-Sim uArch: cycles simulated: 48000  inst.: 26908000 (ipc=560.6) sim_rate=689948 (inst/sec) elapsed = 0:0:00:39 / Thu Dec 14 14:32:26 2017
GPGPU-Sim PTX: 27000000 instructions simulated : ctaid=(4,8,0) tid=(15,1,0)
GPGPU-Sim PTX: 27100000 instructions simulated : ctaid=(1,2,0) tid=(15,5,0)
GPGPU-Sim PTX: 27200000 instructions simulated : ctaid=(4,11,0) tid=(15,5,0)
GPGPU-Sim PTX: 27300000 instructions simulated : ctaid=(3,6,0) tid=(15,1,0)
GPGPU-Sim PTX: 27400000 instructions simulated : ctaid=(2,10,0) tid=(15,7,0)
GPGPU-Sim PTX: 27500000 instructions simulated : ctaid=(7,11,0) tid=(15,1,0)
GPGPU-Sim PTX: 27600000 instructions simulated : ctaid=(4,0,0) tid=(15,1,0)
GPGPU-Sim PTX: 27700000 instructions simulated : ctaid=(6,7,0) tid=(15,5,0)
GPGPU-Sim uArch: cycles simulated: 49500  inst.: 27759296 (ipc=560.8) sim_rate=693982 (inst/sec) elapsed = 0:0:00:40 / Thu Dec 14 14:32:27 2017
GPGPU-Sim PTX: 27800000 instructions simulated : ctaid=(5,10,0) tid=(15,5,0)
GPGPU-Sim PTX: 27900000 instructions simulated : ctaid=(5,5,0) tid=(15,7,0)
GPGPU-Sim PTX: 28000000 instructions simulated : ctaid=(7,11,0) tid=(15,3,0)
GPGPU-Sim PTX: 28100000 instructions simulated : ctaid=(2,7,0) tid=(15,5,0)
GPGPU-Sim PTX: 28200000 instructions simulated : ctaid=(0,3,0) tid=(15,7,0)
GPGPU-Sim PTX: 28300000 instructions simulated : ctaid=(0,11,0) tid=(15,5,0)
GPGPU-Sim uArch: cycles simulated: 50500  inst.: 28322368 (ipc=560.8) sim_rate=690789 (inst/sec) elapsed = 0:0:00:41 / Thu Dec 14 14:32:28 2017
GPGPU-Sim PTX: 28400000 instructions simulated : ctaid=(2,5,0) tid=(15,5,0)
GPGPU-Sim PTX: 28500000 instructions simulated : ctaid=(4,13,0) tid=(15,1,0)
GPGPU-Sim PTX: 28600000 instructions simulated : ctaid=(3,11,0) tid=(15,1,0)
GPGPU-Sim PTX: 28700000 instructions simulated : ctaid=(2,2,0) tid=(15,7,0)
GPGPU-Sim PTX: 28800000 instructions simulated : ctaid=(1,3,0) tid=(15,1,0)
GPGPU-Sim PTX: 28900000 instructions simulated : ctaid=(6,2,0) tid=(15,1,0)
GPGPU-Sim PTX: 29000000 instructions simulated : ctaid=(3,14,0) tid=(15,3,0)
GPGPU-Sim PTX: 29100000 instructions simulated : ctaid=(2,2,0) tid=(15,7,0)
GPGPU-Sim PTX: 29200000 instructions simulated : ctaid=(3,0,0) tid=(15,5,0)
GPGPU-Sim uArch: cycles simulated: 52000  inst.: 29183456 (ipc=561.2) sim_rate=694844 (inst/sec) elapsed = 0:0:00:42 / Thu Dec 14 14:32:29 2017
GPGPU-Sim PTX: 29300000 instructions simulated : ctaid=(2,14,0) tid=(15,5,0)
GPGPU-Sim PTX: 29400000 instructions simulated : ctaid=(6,4,0) tid=(15,5,0)
GPGPU-Sim PTX: 29500000 instructions simulated : ctaid=(3,1,0) tid=(15,5,0)
GPGPU-Sim PTX: 29600000 instructions simulated : ctaid=(4,14,0) tid=(15,1,0)
GPGPU-Sim PTX: 29700000 instructions simulated : ctaid=(6,3,0) tid=(15,3,0)
GPGPU-Sim uArch: cycles simulated: 53000  inst.: 29752768 (ipc=561.4) sim_rate=691924 (inst/sec) elapsed = 0:0:00:43 / Thu Dec 14 14:32:30 2017
GPGPU-Sim PTX: 29800000 instructions simulated : ctaid=(7,6,0) tid=(15,1,0)
GPGPU-Sim PTX: 29900000 instructions simulated : ctaid=(7,5,0) tid=(15,1,0)
GPGPU-Sim PTX: 30000000 instructions simulated : ctaid=(2,2,0) tid=(15,5,0)
GPGPU-Sim PTX: 30100000 instructions simulated : ctaid=(7,13,0) tid=(15,3,0)
GPGPU-Sim PTX: 30200000 instructions simulated : ctaid=(1,5,0) tid=(15,5,0)
GPGPU-Sim PTX: 30300000 instructions simulated : ctaid=(7,6,0) tid=(15,5,0)
GPGPU-Sim PTX: 30400000 instructions simulated : ctaid=(5,0,0) tid=(15,3,0)
GPGPU-Sim PTX: 30500000 instructions simulated : ctaid=(5,8,0) tid=(15,5,0)
GPGPU-Sim PTX: 30600000 instructions simulated : ctaid=(6,6,0) tid=(15,1,0)
GPGPU-Sim uArch: cycles simulated: 54500  inst.: 30606976 (ipc=561.6) sim_rate=695613 (inst/sec) elapsed = 0:0:00:44 / Thu Dec 14 14:32:31 2017
GPGPU-Sim PTX: 30700000 instructions simulated : ctaid=(4,6,0) tid=(15,5,0)
GPGPU-Sim PTX: 30800000 instructions simulated : ctaid=(2,11,0) tid=(15,7,0)
GPGPU-Sim PTX: 30900000 instructions simulated : ctaid=(2,10,0) tid=(15,3,0)
GPGPU-Sim PTX: 31000000 instructions simulated : ctaid=(3,10,0) tid=(15,7,0)
GPGPU-Sim PTX: 31100000 instructions simulated : ctaid=(1,9,0) tid=(15,3,0)
GPGPU-Sim PTX: 31200000 instructions simulated : ctaid=(6,14,0) tid=(15,1,0)
GPGPU-Sim uArch: cycles simulated: 55500  inst.: 31177920 (ipc=561.8) sim_rate=692842 (inst/sec) elapsed = 0:0:00:45 / Thu Dec 14 14:32:32 2017
GPGPU-Sim PTX: 31300000 instructions simulated : ctaid=(5,7,0) tid=(15,1,0)
GPGPU-Sim PTX: 31400000 instructions simulated : ctaid=(2,3,0) tid=(15,7,0)
GPGPU-Sim PTX: 31500000 instructions simulated : ctaid=(1,3,0) tid=(15,5,0)
GPGPU-Sim PTX: 31600000 instructions simulated : ctaid=(1,1,0) tid=(15,5,0)
GPGPU-Sim PTX: 31700000 instructions simulated : ctaid=(2,12,0) tid=(15,1,0)
GPGPU-Sim uArch: cycles simulated: 56500  inst.: 31748000 (ipc=561.9) sim_rate=690173 (inst/sec) elapsed = 0:0:00:46 / Thu Dec 14 14:32:33 2017
GPGPU-Sim PTX: 31800000 instructions simulated : ctaid=(5,6,0) tid=(15,3,0)
GPGPU-Sim PTX: 31900000 instructions simulated : ctaid=(6,11,0) tid=(15,3,0)
GPGPU-Sim PTX: 32000000 instructions simulated : ctaid=(3,6,0) tid=(15,1,0)
GPGPU-Sim PTX: 32100000 instructions simulated : ctaid=(7,4,0) tid=(15,3,0)
GPGPU-Sim PTX: 32200000 instructions simulated : ctaid=(4,13,0) tid=(15,5,0)
GPGPU-Sim PTX: 32300000 instructions simulated : ctaid=(5,8,0) tid=(15,5,0)
GPGPU-Sim PTX: 32400000 instructions simulated : ctaid=(6,3,0) tid=(15,3,0)
GPGPU-Sim PTX: 32500000 instructions simulated : ctaid=(6,13,0) tid=(15,1,0)
GPGPU-Sim PTX: 32600000 instructions simulated : ctaid=(6,12,0) tid=(15,1,0)
GPGPU-Sim uArch: cycles simulated: 58000  inst.: 32604448 (ipc=562.1) sim_rate=693711 (inst/sec) elapsed = 0:0:00:47 / Thu Dec 14 14:32:34 2017
GPGPU-Sim PTX: 32700000 instructions simulated : ctaid=(2,10,0) tid=(15,3,0)
GPGPU-Sim PTX: 32800000 instructions simulated : ctaid=(6,11,0) tid=(15,7,0)
GPGPU-Sim PTX: 32900000 instructions simulated : ctaid=(0,11,0) tid=(15,5,0)
GPGPU-Sim PTX: 33000000 instructions simulated : ctaid=(5,3,0) tid=(15,3,0)
GPGPU-Sim PTX: 33100000 instructions simulated : ctaid=(4,5,0) tid=(15,1,0)
GPGPU-Sim uArch: cycles simulated: 59000  inst.: 33161472 (ipc=562.1) sim_rate=690864 (inst/sec) elapsed = 0:0:00:48 / Thu Dec 14 14:32:35 2017
GPGPU-Sim PTX: 33200000 instructions simulated : ctaid=(1,2,0) tid=(15,3,0)
GPGPU-Sim PTX: 33300000 instructions simulated : ctaid=(6,14,0) tid=(15,1,0)
GPGPU-Sim PTX: 33400000 instructions simulated : ctaid=(1,5,0) tid=(15,3,0)
GPGPU-Sim PTX: 33500000 instructions simulated : ctaid=(7,12,0) tid=(15,5,0)
GPGPU-Sim PTX: 33600000 instructions simulated : ctaid=(4,1,0) tid=(15,1,0)
GPGPU-Sim PTX: 33700000 instructions simulated : ctaid=(5,3,0) tid=(15,1,0)
GPGPU-Sim PTX: 33800000 instructions simulated : ctaid=(2,2,0) tid=(15,5,0)
GPGPU-Sim PTX: 33900000 instructions simulated : ctaid=(6,10,0) tid=(15,3,0)
GPGPU-Sim PTX: 34000000 instructions simulated : ctaid=(2,0,0) tid=(15,7,0)
GPGPU-Sim uArch: cycles simulated: 60500  inst.: 34018368 (ipc=562.3) sim_rate=694252 (inst/sec) elapsed = 0:0:00:49 / Thu Dec 14 14:32:36 2017
GPGPU-Sim PTX: 34100000 instructions simulated : ctaid=(0,2,0) tid=(15,5,0)
GPGPU-Sim PTX: 34200000 instructions simulated : ctaid=(4,0,0) tid=(15,1,0)
GPGPU-Sim PTX: 34300000 instructions simulated : ctaid=(5,11,0) tid=(15,3,0)
GPGPU-Sim PTX: 34400000 instructions simulated : ctaid=(0,10,0) tid=(15,7,0)
GPGPU-Sim PTX: 34500000 instructions simulated : ctaid=(5,8,0) tid=(15,1,0)
GPGPU-Sim PTX: 34600000 instructions simulated : ctaid=(2,6,0) tid=(15,5,0)
GPGPU-Sim uArch: cycles simulated: 61500  inst.: 34591968 (ipc=562.5) sim_rate=691839 (inst/sec) elapsed = 0:0:00:50 / Thu Dec 14 14:32:37 2017
GPGPU-Sim PTX: 34700000 instructions simulated : ctaid=(5,8,0) tid=(15,7,0)
GPGPU-Sim PTX: 34800000 instructions simulated : ctaid=(2,10,0) tid=(15,1,0)
GPGPU-Sim PTX: 34900000 instructions simulated : ctaid=(3,7,0) tid=(15,5,0)
GPGPU-Sim PTX: 35000000 instructions simulated : ctaid=(5,2,0) tid=(15,3,0)
GPGPU-Sim PTX: 35100000 instructions simulated : ctaid=(0,10,0) tid=(15,5,0)
GPGPU-Sim PTX: 35200000 instructions simulated : ctaid=(3,7,0) tid=(15,1,0)
GPGPU-Sim PTX: 35300000 instructions simulated : ctaid=(4,10,0) tid=(15,1,0)
GPGPU-Sim PTX: 35400000 instructions simulated : ctaid=(5,12,0) tid=(15,3,0)
GPGPU-Sim uArch: cycles simulated: 63000  inst.: 35452512 (ipc=562.7) sim_rate=695147 (inst/sec) elapsed = 0:0:00:51 / Thu Dec 14 14:32:38 2017
GPGPU-Sim PTX: 35500000 instructions simulated : ctaid=(6,7,0) tid=(15,5,0)
GPGPU-Sim PTX: 35600000 instructions simulated : ctaid=(3,12,0) tid=(15,5,0)
GPGPU-Sim PTX: 35700000 instructions simulated : ctaid=(4,7,0) tid=(15,5,0)
GPGPU-Sim PTX: 35800000 instructions simulated : ctaid=(5,4,0) tid=(15,5,0)
GPGPU-Sim PTX: 35900000 instructions simulated : ctaid=(2,12,0) tid=(15,7,0)
GPGPU-Sim PTX: 36000000 instructions simulated : ctaid=(5,13,0) tid=(15,5,0)
GPGPU-Sim uArch: cycles simulated: 64000  inst.: 36020320 (ipc=562.8) sim_rate=692698 (inst/sec) elapsed = 0:0:00:52 / Thu Dec 14 14:32:39 2017
GPGPU-Sim PTX: 36100000 instructions simulated : ctaid=(0,3,0) tid=(15,5,0)
GPGPU-Sim PTX: 36200000 instructions simulated : ctaid=(2,13,0) tid=(15,1,0)
GPGPU-Sim PTX: 36300000 instructions simulated : ctaid=(6,13,0) tid=(15,5,0)
GPGPU-Sim PTX: 36400000 instructions simulated : ctaid=(4,1,0) tid=(15,5,0)
GPGPU-Sim PTX: 36500000 instructions simulated : ctaid=(7,0,0) tid=(15,1,0)
GPGPU-Sim PTX: 36600000 instructions simulated : ctaid=(4,8,0) tid=(15,5,0)
GPGPU-Sim PTX: 36700000 instructions simulated : ctaid=(5,9,0) tid=(15,3,0)
GPGPU-Sim PTX: 36800000 instructions simulated : ctaid=(4,9,0) tid=(15,7,0)
GPGPU-Sim PTX: 36900000 instructions simulated : ctaid=(4,13,0) tid=(15,3,0)
GPGPU-Sim uArch: cycles simulated: 65500  inst.: 36876800 (ipc=563.0) sim_rate=695788 (inst/sec) elapsed = 0:0:00:53 / Thu Dec 14 14:32:40 2017
GPGPU-Sim PTX: 37000000 instructions simulated : ctaid=(0,14,0) tid=(15,5,0)
GPGPU-Sim PTX: 37100000 instructions simulated : ctaid=(3,2,0) tid=(15,5,0)
GPGPU-Sim PTX: 37200000 instructions simulated : ctaid=(0,2,0) tid=(15,5,0)
GPGPU-Sim PTX: 37300000 instructions simulated : ctaid=(4,6,0) tid=(15,3,0)
GPGPU-Sim PTX: 37400000 instructions simulated : ctaid=(3,1,0) tid=(15,5,0)
GPGPU-Sim uArch: cycles simulated: 66500  inst.: 37444192 (ipc=563.1) sim_rate=693410 (inst/sec) elapsed = 0:0:00:54 / Thu Dec 14 14:32:41 2017
GPGPU-Sim PTX: 37500000 instructions simulated : ctaid=(5,7,0) tid=(15,5,0)
GPGPU-Sim PTX: 37600000 instructions simulated : ctaid=(3,0,0) tid=(15,5,0)
GPGPU-Sim PTX: 37700000 instructions simulated : ctaid=(7,7,0) tid=(15,5,0)
GPGPU-Sim PTX: 37800000 instructions simulated : ctaid=(7,14,0) tid=(15,1,0)
GPGPU-Sim PTX: 37900000 instructions simulated : ctaid=(7,9,0) tid=(15,5,0)
GPGPU-Sim PTX: 38000000 instructions simulated : ctaid=(3,5,0) tid=(15,3,0)
GPGPU-Sim PTX: 38100000 instructions simulated : ctaid=(7,3,0) tid=(15,7,0)
GPGPU-Sim PTX: 38200000 instructions simulated : ctaid=(2,5,0) tid=(15,3,0)
GPGPU-Sim PTX: 38300000 instructions simulated : ctaid=(1,1,0) tid=(15,3,0)
GPGPU-Sim uArch: cycles simulated: 68000  inst.: 38296160 (ipc=563.2) sim_rate=696293 (inst/sec) elapsed = 0:0:00:55 / Thu Dec 14 14:32:42 2017
GPGPU-Sim PTX: 38400000 instructions simulated : ctaid=(3,4,0) tid=(15,1,0)
GPGPU-Sim PTX: 38500000 instructions simulated : ctaid=(3,4,0) tid=(15,7,0)
GPGPU-Sim PTX: 38600000 instructions simulated : ctaid=(0,11,0) tid=(15,5,0)
GPGPU-Sim PTX: 38700000 instructions simulated : ctaid=(3,10,0) tid=(15,1,0)
GPGPU-Sim PTX: 38800000 instructions simulated : ctaid=(1,1,0) tid=(15,1,0)
GPGPU-Sim PTX: 38900000 instructions simulated : ctaid=(4,13,0) tid=(15,5,0)
GPGPU-Sim uArch: cycles simulated: 69000  inst.: 38874880 (ipc=563.4) sim_rate=694194 (inst/sec) elapsed = 0:0:00:56 / Thu Dec 14 14:32:43 2017
GPGPU-Sim PTX: 39000000 instructions simulated : ctaid=(2,0,0) tid=(15,1,0)
GPGPU-Sim PTX: 39100000 instructions simulated : ctaid=(7,5,0) tid=(15,3,0)
GPGPU-Sim PTX: 39200000 instructions simulated : ctaid=(4,3,0) tid=(15,5,0)
GPGPU-Sim PTX: 39300000 instructions simulated : ctaid=(0,8,0) tid=(15,5,0)
GPGPU-Sim PTX: 39400000 instructions simulated : ctaid=(3,5,0) tid=(15,5,0)
GPGPU-Sim PTX: 39500000 instructions simulated : ctaid=(4,10,0) tid=(15,5,0)
GPGPU-Sim PTX: 39600000 instructions simulated : ctaid=(1,5,0) tid=(15,1,0)
GPGPU-Sim PTX: 39700000 instructions simulated : ctaid=(0,2,0) tid=(15,7,0)
GPGPU-Sim uArch: cycles simulated: 70500  inst.: 39727232 (ipc=563.5) sim_rate=696968 (inst/sec) elapsed = 0:0:00:57 / Thu Dec 14 14:32:44 2017
GPGPU-Sim PTX: 39800000 instructions simulated : ctaid=(2,2,0) tid=(15,3,0)
GPGPU-Sim PTX: 39900000 instructions simulated : ctaid=(4,8,0) tid=(15,1,0)
GPGPU-Sim PTX: 40000000 instructions simulated : ctaid=(7,3,0) tid=(15,1,0)
GPGPU-Sim PTX: 40100000 instructions simulated : ctaid=(1,5,0) tid=(15,5,0)
GPGPU-Sim PTX: 40200000 instructions simulated : ctaid=(6,14,0) tid=(15,1,0)
GPGPU-Sim PTX: 40300000 instructions simulated : ctaid=(4,13,0) tid=(15,5,0)
GPGPU-Sim uArch: cycles simulated: 71500  inst.: 40300736 (ipc=563.6) sim_rate=694840 (inst/sec) elapsed = 0:0:00:58 / Thu Dec 14 14:32:45 2017
GPGPU-Sim PTX: 40400000 instructions simulated : ctaid=(4,4,0) tid=(15,5,0)
GPGPU-Sim PTX: 40500000 instructions simulated : ctaid=(7,1,0) tid=(15,7,0)
GPGPU-Sim PTX: 40600000 instructions simulated : ctaid=(5,2,0) tid=(15,1,0)
GPGPU-Sim PTX: 40700000 instructions simulated : ctaid=(5,6,0) tid=(15,1,0)
GPGPU-Sim PTX: 40800000 instructions simulated : ctaid=(7,7,0) tid=(15,3,0)
GPGPU-Sim PTX: 40900000 instructions simulated : ctaid=(2,5,0) tid=(15,1,0)
GPGPU-Sim PTX: 41000000 instructions simulated : ctaid=(2,9,0) tid=(15,7,0)
GPGPU-Sim PTX: 41100000 instructions simulated : ctaid=(3,13,0) tid=(15,7,0)
GPGPU-Sim uArch: cycles simulated: 73000  inst.: 41154816 (ipc=563.8) sim_rate=697539 (inst/sec) elapsed = 0:0:00:59 / Thu Dec 14 14:32:46 2017
GPGPU-Sim PTX: 41200000 instructions simulated : ctaid=(5,12,0) tid=(15,7,0)
GPGPU-Sim PTX: 41300000 instructions simulated : ctaid=(1,13,0) tid=(15,7,0)
GPGPU-Sim PTX: 41400000 instructions simulated : ctaid=(5,5,0) tid=(15,7,0)
GPGPU-Sim PTX: 41500000 instructions simulated : ctaid=(0,6,0) tid=(15,1,0)
GPGPU-Sim PTX: 41600000 instructions simulated : ctaid=(7,5,0) tid=(15,3,0)
GPGPU-Sim PTX: 41700000 instructions simulated : ctaid=(6,11,0) tid=(15,7,0)
GPGPU-Sim uArch: cycles simulated: 74000  inst.: 41724032 (ipc=563.8) sim_rate=695400 (inst/sec) elapsed = 0:0:01:00 / Thu Dec 14 14:32:47 2017
GPGPU-Sim PTX: 41800000 instructions simulated : ctaid=(1,2,0) tid=(15,7,0)
GPGPU-Sim PTX: 41900000 instructions simulated : ctaid=(4,11,0) tid=(15,7,0)
GPGPU-Sim PTX: 42000000 instructions simulated : ctaid=(5,12,0) tid=(15,1,0)
GPGPU-Sim PTX: 42100000 instructions simulated : ctaid=(1,13,0) tid=(15,5,0)
GPGPU-Sim PTX: 42200000 instructions simulated : ctaid=(0,0,0) tid=(15,7,0)
GPGPU-Sim PTX: 42300000 instructions simulated : ctaid=(6,4,0) tid=(15,7,0)
GPGPU-Sim PTX: 42400000 instructions simulated : ctaid=(3,1,0) tid=(15,7,0)
GPGPU-Sim PTX: 42500000 instructions simulated : ctaid=(6,8,0) tid=(15,1,0)
GPGPU-Sim PTX: 42600000 instructions simulated : ctaid=(3,4,0) tid=(15,3,0)
GPGPU-Sim uArch: cycles simulated: 75500  inst.: 42577280 (ipc=563.9) sim_rate=697988 (inst/sec) elapsed = 0:0:01:01 / Thu Dec 14 14:32:48 2017
GPGPU-Sim PTX: 42700000 instructions simulated : ctaid=(7,5,0) tid=(15,1,0)
GPGPU-Sim PTX: 42800000 instructions simulated : ctaid=(0,14,0) tid=(15,5,0)
GPGPU-Sim PTX: 42900000 instructions simulated : ctaid=(5,10,0) tid=(15,3,0)
GPGPU-Sim PTX: 43000000 instructions simulated : ctaid=(0,6,0) tid=(15,1,0)
GPGPU-Sim PTX: 43100000 instructions simulated : ctaid=(7,10,0) tid=(15,5,0)
GPGPU-Sim uArch: cycles simulated: 76500  inst.: 43141824 (ipc=563.9) sim_rate=695835 (inst/sec) elapsed = 0:0:01:02 / Thu Dec 14 14:32:49 2017
GPGPU-Sim PTX: 43200000 instructions simulated : ctaid=(1,1,0) tid=(15,7,0)
GPGPU-Sim PTX: 43300000 instructions simulated : ctaid=(2,12,0) tid=(15,7,0)
GPGPU-Sim PTX: 43400000 instructions simulated : ctaid=(3,3,0) tid=(15,5,0)
GPGPU-Sim PTX: 43500000 instructions simulated : ctaid=(3,3,0) tid=(15,1,0)
GPGPU-Sim PTX: 43600000 instructions simulated : ctaid=(4,12,0) tid=(15,5,0)
GPGPU-Sim PTX: 43700000 instructions simulated : ctaid=(7,4,0) tid=(15,3,0)
GPGPU-Sim PTX: 43800000 instructions simulated : ctaid=(5,7,0) tid=(15,1,0)
GPGPU-Sim PTX: 43900000 instructions simulated : ctaid=(1,12,0) tid=(15,7,0)
GPGPU-Sim PTX: 44000000 instructions simulated : ctaid=(4,3,0) tid=(15,1,0)
GPGPU-Sim uArch: cycles simulated: 78000  inst.: 43999680 (ipc=564.1) sim_rate=698407 (inst/sec) elapsed = 0:0:01:03 / Thu Dec 14 14:32:50 2017
GPGPU-Sim PTX: 44100000 instructions simulated : ctaid=(7,1,0) tid=(15,7,0)
GPGPU-Sim PTX: 44200000 instructions simulated : ctaid=(3,9,0) tid=(15,1,0)
GPGPU-Sim PTX: 44300000 instructions simulated : ctaid=(0,10,0) tid=(15,3,0)
GPGPU-Sim PTX: 44400000 instructions simulated : ctaid=(4,13,0) tid=(15,5,0)
GPGPU-Sim PTX: 44500000 instructions simulated : ctaid=(4,14,0) tid=(15,3,0)
GPGPU-Sim uArch: cycles simulated: 79000  inst.: 44568064 (ipc=564.2) sim_rate=696376 (inst/sec) elapsed = 0:0:01:04 / Thu Dec 14 14:32:51 2017
GPGPU-Sim PTX: 44600000 instructions simulated : ctaid=(6,6,0) tid=(15,5,0)
GPGPU-Sim PTX: 44700000 instructions simulated : ctaid=(7,7,0) tid=(15,1,0)
GPGPU-Sim PTX: 44800000 instructions simulated : ctaid=(5,5,0) tid=(15,3,0)
GPGPU-Sim PTX: 44900000 instructions simulated : ctaid=(2,5,0) tid=(15,7,0)
GPGPU-Sim PTX: 45000000 instructions simulated : ctaid=(7,1,0) tid=(15,5,0)
GPGPU-Sim PTX: 45100000 instructions simulated : ctaid=(7,5,0) tid=(15,7,0)
GPGPU-Sim PTX: 45200000 instructions simulated : ctaid=(6,5,0) tid=(15,7,0)
GPGPU-Sim PTX: 45300000 instructions simulated : ctaid=(2,11,0) tid=(15,1,0)
GPGPU-Sim PTX: 45400000 instructions simulated : ctaid=(1,0,0) tid=(15,5,0)
GPGPU-Sim uArch: cycles simulated: 80500  inst.: 45424704 (ipc=564.3) sim_rate=698841 (inst/sec) elapsed = 0:0:01:05 / Thu Dec 14 14:32:52 2017
GPGPU-Sim PTX: 45500000 instructions simulated : ctaid=(7,2,0) tid=(15,1,0)
GPGPU-Sim PTX: 45600000 instructions simulated : ctaid=(0,8,0) tid=(15,3,0)
GPGPU-Sim PTX: 45700000 instructions simulated : ctaid=(1,12,0) tid=(15,5,0)
GPGPU-Sim PTX: 45800000 instructions simulated : ctaid=(0,4,0) tid=(15,7,0)
GPGPU-Sim PTX: 45900000 instructions simulated : ctaid=(5,9,0) tid=(15,3,0)
GPGPU-Sim PTX: 46000000 instructions simulated : ctaid=(1,7,0) tid=(15,3,0)
GPGPU-Sim uArch: cycles simulated: 81500  inst.: 46002208 (ipc=564.4) sim_rate=697003 (inst/sec) elapsed = 0:0:01:06 / Thu Dec 14 14:32:53 2017
GPGPU-Sim PTX: 46100000 instructions simulated : ctaid=(1,1,0) tid=(15,1,0)
GPGPU-Sim PTX: 46200000 instructions simulated : ctaid=(4,7,0) tid=(15,3,0)
GPGPU-Sim PTX: 46300000 instructions simulated : ctaid=(5,4,0) tid=(15,7,0)
GPGPU-Sim PTX: 46400000 instructions simulated : ctaid=(6,13,0) tid=(15,7,0)
GPGPU-Sim PTX: 46500000 instructions simulated : ctaid=(5,7,0) tid=(15,5,0)
GPGPU-Sim PTX: 46600000 instructions simulated : ctaid=(7,11,0) tid=(15,5,0)
GPGPU-Sim PTX: 46700000 instructions simulated : ctaid=(6,9,0) tid=(15,3,0)
GPGPU-Sim PTX: 46800000 instructions simulated : ctaid=(0,0,0) tid=(15,3,0)
GPGPU-Sim uArch: cycles simulated: 83000  inst.: 46806816 (ipc=563.9) sim_rate=698609 (inst/sec) elapsed = 0:0:01:07 / Thu Dec 14 14:32:54 2017
GPGPU-Sim PTX: 46900000 instructions simulated : ctaid=(3,1,0) tid=(15,3,0)
GPGPU-Sim PTX: 47000000 instructions simulated : ctaid=(6,11,0) tid=(15,3,0)
GPGPU-Sim PTX: 47100000 instructions simulated : ctaid=(1,8,0) tid=(15,3,0)
GPGPU-Sim PTX: 47200000 instructions simulated : ctaid=(2,7,0) tid=(15,7,0)
GPGPU-Sim PTX: 47300000 instructions simulated : ctaid=(1,5,0) tid=(15,7,0)
GPGPU-Sim PTX: 47400000 instructions simulated : ctaid=(5,8,0) tid=(15,7,0)
GPGPU-Sim PTX: 47500000 instructions simulated : ctaid=(3,6,0) tid=(15,7,0)
GPGPU-Sim uArch: cycles simulated: 84500  inst.: 47554976 (ipc=562.8) sim_rate=699337 (inst/sec) elapsed = 0:0:01:08 / Thu Dec 14 14:32:55 2017
GPGPU-Sim PTX: 47600000 instructions simulated : ctaid=(4,14,0) tid=(15,7,0)
GPGPU-Sim PTX: 47700000 instructions simulated : ctaid=(5,7,0) tid=(15,7,0)
GPGPU-Sim PTX: 47800000 instructions simulated : ctaid=(0,12,0) tid=(15,3,0)
GPGPU-Sim PTX: 47900000 instructions simulated : ctaid=(2,3,0) tid=(15,7,0)
GPGPU-Sim PTX: 48000000 instructions simulated : ctaid=(6,5,0) tid=(15,3,0)
GPGPU-Sim PTX: 48100000 instructions simulated : ctaid=(4,4,0) tid=(15,7,0)
GPGPU-Sim PTX: 48200000 instructions simulated : ctaid=(3,1,0) tid=(15,7,0)
GPGPU-Sim PTX: 48300000 instructions simulated : ctaid=(5,7,0) tid=(15,3,0)
GPGPU-Sim PTX: 48400000 instructions simulated : ctaid=(7,13,0) tid=(15,3,0)
GPGPU-Sim PTX: 48500000 instructions simulated : ctaid=(4,14,0) tid=(15,7,0)
GPGPU-Sim uArch: cycles simulated: 86500  inst.: 48514976 (ipc=560.9) sim_rate=703115 (inst/sec) elapsed = 0:0:01:09 / Thu Dec 14 14:32:56 2017
GPGPU-Sim PTX: 48600000 instructions simulated : ctaid=(7,3,0) tid=(15,7,0)
GPGPU-Sim PTX: 48700000 instructions simulated : ctaid=(2,8,0) tid=(15,7,0)
GPGPU-Sim PTX: 48800000 instructions simulated : ctaid=(2,3,0) tid=(15,3,0)
GPGPU-Sim PTX: 48900000 instructions simulated : ctaid=(0,2,0) tid=(15,3,0)
GPGPU-Sim PTX: 49000000 instructions simulated : ctaid=(7,13,0) tid=(15,7,0)
GPGPU-Sim PTX: 49100000 instructions simulated : ctaid=(0,7,0) tid=(15,3,0)
GPGPU-Sim PTX: 49200000 instructions simulated : ctaid=(2,13,0) tid=(15,3,0)
GPGPU-Sim uArch: cycles simulated: 88000  inst.: 49234880 (ipc=559.5) sim_rate=703355 (inst/sec) elapsed = 0:0:01:10 / Thu Dec 14 14:32:57 2017
GPGPU-Sim PTX: 49300000 instructions simulated : ctaid=(4,4,0) tid=(15,3,0)
GPGPU-Sim PTX: 49400000 instructions simulated : ctaid=(7,8,0) tid=(15,7,0)
GPGPU-Sim PTX: 49500000 instructions simulated : ctaid=(5,7,0) tid=(15,7,0)
GPGPU-Sim PTX: 49600000 instructions simulated : ctaid=(4,4,0) tid=(15,7,0)
GPGPU-Sim PTX: 49700000 instructions simulated : ctaid=(4,14,0) tid=(15,3,0)
GPGPU-Sim PTX: 49800000 instructions simulated : ctaid=(3,11,0) tid=(15,3,0)
GPGPU-Sim PTX: 49900000 instructions simulated : ctaid=(2,8,0) tid=(15,7,0)
GPGPU-Sim PTX: 50000000 instructions simulated : ctaid=(6,10,0) tid=(15,3,0)
GPGPU-Sim PTX: 50100000 instructions simulated : ctaid=(3,11,0) tid=(15,3,0)
GPGPU-Sim PTX: 50200000 instructions simulated : ctaid=(1,10,0) tid=(15,3,0)
GPGPU-Sim uArch: cycles simulated: 90000  inst.: 50194880 (ipc=557.7) sim_rate=706970 (inst/sec) elapsed = 0:0:01:11 / Thu Dec 14 14:32:58 2017
GPGPU-Sim PTX: 50300000 instructions simulated : ctaid=(7,8,0) tid=(15,3,0)
GPGPU-Sim PTX: 50400000 instructions simulated : ctaid=(3,11,0) tid=(15,7,0)
GPGPU-Sim PTX: 50500000 instructions simulated : ctaid=(7,13,0) tid=(15,3,0)
GPGPU-Sim PTX: 50600000 instructions simulated : ctaid=(1,5,0) tid=(15,3,0)
GPGPU-Sim PTX: 50700000 instructions simulated : ctaid=(1,0,0) tid=(15,3,0)
GPGPU-Sim PTX: 50800000 instructions simulated : ctaid=(4,4,0) tid=(15,3,0)
GPGPU-Sim PTX: 50900000 instructions simulated : ctaid=(5,12,0) tid=(15,7,0)
GPGPU-Sim PTX: 51000000 instructions simulated : ctaid=(7,3,0) tid=(15,3,0)
GPGPU-Sim PTX: 51100000 instructions simulated : ctaid=(3,6,0) tid=(15,7,0)
GPGPU-Sim uArch: cycles simulated: 92000  inst.: 51154816 (ipc=556.0) sim_rate=710483 (inst/sec) elapsed = 0:0:01:12 / Thu Dec 14 14:32:59 2017
GPGPU-Sim PTX: 51200000 instructions simulated : ctaid=(6,10,0) tid=(15,7,0)
GPGPU-Sim PTX: 51300000 instructions simulated : ctaid=(4,9,0) tid=(15,7,0)
GPGPU-Sim PTX: 51400000 instructions simulated : ctaid=(7,13,0) tid=(15,7,0)
GPGPU-Sim PTX: 51500000 instructions simulated : ctaid=(0,7,0) tid=(15,3,0)
GPGPU-Sim PTX: 51600000 instructions simulated : ctaid=(2,13,0) tid=(15,7,0)
GPGPU-Sim PTX: 51700000 instructions simulated : ctaid=(0,12,0) tid=(15,3,0)
GPGPU-Sim PTX: 51800000 instructions simulated : ctaid=(5,12,0) tid=(15,7,0)
GPGPU-Sim PTX: 51900000 instructions simulated : ctaid=(0,2,0) tid=(15,3,0)
GPGPU-Sim PTX: 52000000 instructions simulated : ctaid=(7,13,0) tid=(15,7,0)
GPGPU-Sim PTX: 52100000 instructions simulated : ctaid=(6,10,0) tid=(15,3,0)
GPGPU-Sim uArch: cycles simulated: 94000  inst.: 52114656 (ipc=554.4) sim_rate=713899 (inst/sec) elapsed = 0:0:01:13 / Thu Dec 14 14:33:00 2017
GPGPU-Sim PTX: 52200000 instructions simulated : ctaid=(6,5,0) tid=(15,3,0)
GPGPU-Sim PTX: 52300000 instructions simulated : ctaid=(4,4,0) tid=(15,3,0)
GPGPU-Sim PTX: 52400000 instructions simulated : ctaid=(7,8,0) tid=(15,7,0)
GPGPU-Sim PTX: 52500000 instructions simulated : ctaid=(6,5,0) tid=(15,7,0)
GPGPU-Sim PTX: 52600000 instructions simulated : ctaid=(3,6,0) tid=(15,7,0)
GPGPU-Sim PTX: 52700000 instructions simulated : ctaid=(3,1,0) tid=(15,3,0)
GPGPU-Sim PTX: 52800000 instructions simulated : ctaid=(5,7,0) tid=(15,7,0)
GPGPU-Sim PTX: 52900000 instructions simulated : ctaid=(6,0,0) tid=(15,3,0)
GPGPU-Sim PTX: 53000000 instructions simulated : ctaid=(1,5,0) tid=(15,3,0)
GPGPU-Sim PTX: 53100000 instructions simulated : ctaid=(3,11,0) tid=(15,3,0)
GPGPU-Sim uArch: cycles simulated: 96000  inst.: 53074912 (ipc=552.9) sim_rate=717228 (inst/sec) elapsed = 0:0:01:14 / Thu Dec 14 14:33:01 2017
GPGPU-Sim PTX: 53200000 instructions simulated : ctaid=(7,13,0) tid=(15,3,0)
GPGPU-Sim PTX: 53300000 instructions simulated : ctaid=(4,14,0) tid=(15,7,0)
GPGPU-Sim PTX: 53400000 instructions simulated : ctaid=(2,13,0) tid=(15,7,0)
GPGPU-Sim PTX: 53500000 instructions simulated : ctaid=(5,2,0) tid=(15,7,0)
GPGPU-Sim PTX: 53600000 instructions simulated : ctaid=(0,7,0) tid=(15,7,0)
GPGPU-Sim PTX: 53700000 instructions simulated : ctaid=(0,2,0) tid=(15,7,0)
GPGPU-Sim PTX: 53800000 instructions simulated : ctaid=(3,6,0) tid=(15,3,0)
GPGPU-Sim PTX: 53900000 instructions simulated : ctaid=(2,3,0) tid=(15,3,0)
GPGPU-Sim PTX: 54000000 instructions simulated : ctaid=(6,5,0) tid=(15,3,0)
GPGPU-Sim uArch: cycles simulated: 98000  inst.: 54034784 (ipc=551.4) sim_rate=720463 (inst/sec) elapsed = 0:0:01:15 / Thu Dec 14 14:33:02 2017
GPGPU-Sim PTX: 54100000 instructions simulated : ctaid=(0,12,0) tid=(15,3,0)
GPGPU-Sim PTX: 54200000 instructions simulated : ctaid=(6,10,0) tid=(15,7,0)
[...]
gpgpu_stall_shd_mem[gl_mem][bk_conf] = 0
gpgpu_stall_shd_mem[gl_mem][coal_stall] = 10465
gpgpu_stall_shd_mem[gl_mem][data_port_stall] = 0
gpgpu_stall_shd_mem[g_mem_ld][mshr_rc] = 0
gpgpu_stall_shd_mem[g_mem_ld][icnt_rc] = 0
gpgpu_stall_shd_mem[g_mem_ld][wb_icnt_rc] = 0
gpgpu_stall_shd_mem[g_mem_ld][wb_rsrv_fail] = 0
gpgpu_stall_shd_mem[g_mem_st][mshr_rc] = 0
gpgpu_stall_shd_mem[g_mem_st][icnt_rc] = 0
gpgpu_stall_shd_mem[g_mem_st][wb_icnt_rc] = 0
gpgpu_stall_shd_mem[g_mem_st][wb_rsrv_fail] = 0
gpgpu_stall_shd_mem[l_mem_ld][mshr_rc] = 0
gpgpu_stall_shd_mem[l_mem_ld][icnt_rc] = 0
gpgpu_stall_shd_mem[l_mem_ld][wb_icnt_rc] = 0
gpgpu_stall_shd_mem[l_mem_ld][wb_rsrv_fail] = 0
gpgpu_stall_shd_mem[l_mem_st][mshr_rc] = 0
gpgpu_stall_shd_mem[l_mem_st][icnt_rc] = 0
gpgpu_stall_shd_mem[l_mem_ld][wb_icnt_rc] = 0
gpgpu_stall_shd_mem[l_mem_ld][wb_rsrv_fail] = 0
gpu_reg_bank_conflict_stalls = 0
Warp Occupancy Distribution:
Stall:2006862	W0_Idle:785409	W0_Scoreboard:306927	W1:0	W2:0	W3:0	W4:0	W5:0	W6:0	W7:0	W8:0	W9:0	W10:0	W11:0	W12:0	W13:0	W14:0	W15:0	W16:0	W17:0	W18:0	W19:0	W20:0	W21:0	W22:0	W23:0	W24:0	W25:0	W26:0	W27:0	W28:0	W29:0	W30:0	W31:0	W32:3938304
traffic_breakdown_coretomem[CONST_ACC_R] = 6120 {8:765,}
traffic_breakdown_coretomem[GLOBAL_ACC_R] = 32560 {8:4070,}
traffic_breakdown_coretomem[GLOBAL_ACC_W] = 294912 {72:4096,}
traffic_breakdown_coretomem[INST_ACC_R] = 600 {8:75,}
traffic_breakdown_memtocore[CONST_ACC_R] = 55080 {72:765,}
traffic_breakdown_memtocore[GLOBAL_ACC_R] = 553520 {136:4070,}
traffic_breakdown_memtocore[GLOBAL_ACC_W] = 32768 {8:4096,}
traffic_breakdown_memtocore[INST_ACC_R] = 10200 {136:75,}
maxmrqlatency = 16 
maxdqlatency = 0 
maxmflatency = 572 
averagemflatency = 236 
max_icnt2mem_latency = 262 
max_icnt2sh_latency = 281965 
mrq_lat_table:1909 	92 	46 	31 	1 	0 	0 	0 	0 	0 	0 	0 	0 	0 	0 	0 	0 	0 	0 	0 	0 	0 	0 	0 	0 	0 	0 	0 	0 	0 	0 	0 	
dq_lat_table:0 	0 	0 	0 	0 	0 	0 	0 	0 	0 	0 	0 	0 	0 	0 	0 	0 	0 	0 	0 	0 	0 	0 	0 	0 	0 	0 	0 	0 	0 	0 	0 	
mf_lat_table:0 	0 	0 	0 	0 	0 	0 	5254 	3666 	11 	0 	0 	0 	0 	0 	0 	0 	0 	0 	0 	0 	0 	0 	0 	0 	0 	0 	0 	0 	0 	0 	0 	
icnt2mem_lat_table:0 	0 	0 	4714 	2178 	1002 	815 	291 	6 	0 	0 	0 	0 	0 	0 	0 	0 	0 	0 	0 	0 	0 	0 	0 	
icnt2sh_lat_table:0 	0 	0 	1202 	1687 	1589 	351 	6 	0 	0 	0 	0 	0 	0 	0 	0 	1920 	2096 	80 	0 	0 	0 	0 	0 	
mf_lat_pw_table:0 	0 	0 	0 	0 	0 	0 	166 	11 	0 	0 	0 	0 	0 	0 	0 	0 	0 	0 	0 	0 	0 	0 	0 	0 	0 	0 	0 	0 	0 	0 	0 	
maximum concurrent accesses to same row:
dram[0]:         1         0         0         0         0         0         0         0         0         0         0         0         0         0         0         0 
dram[1]:         2         0         0         0         0         0         0         0         0         0         0         0         0         0         0         0 
dram[2]:         2         0         0         0         0         0         0         0         0         0         0         0         0         0         0         0 
dram[3]:         0         0         0         0         0         0         0         0         0         0         0         0         0         0         0         0 
dram[4]:         0         0         0         0         0         0         0         0         0         0         0         0         0         0         0         0 
dram[5]:         0         0         0         0         0         0         0         0         0         0         0         0         0         0         0         0 
maximum service time to same row:
dram[0]:     71133         0         0         0     82554     82344     82363     82429     82374     82322     82657     83284    190834    190756    191499    190816 
dram[1]:      3271         0         0         0     82326     82525     82334     82441     82537     82318     82626     82515    190535    190779    191040    190957 
dram[2]:     82012         0         0         0     82338     82524     82432     82366     82334     82310     83325     82519    190760    190791    190818    191501 
dram[3]:         0         0         0         0     82526     82357     82329     82351     82313     82538     82516     82682    190781    190807    190959    191041 
dram[4]:         0         0         0         0     82526     82340     82368     82434     82312     82319     82522     83457    190794    190754    191719    191037 
dram[5]:         0         0         0         0     82324     82522     82332     82332     82549     82316     82624     82519    190534    190782    191038    190954 
average row accesses per activate:
dram[0]:  1.250000       inf      -nan      -nan 10.000000 10.000000 32.000000 32.000000 32.000000 32.000000 32.000000 32.000000 32.000000 32.000000 32.000000 32.000000 
dram[1]:  2.500000       inf      -nan      -nan 10.000000 10.000000 32.000000 32.000000 32.000000 32.000000 32.000000 32.000000 32.000000 32.000000 32.000000 32.000000 
dram[2]:  3.000000       inf      -nan      -nan 10.000000 12.000000 32.000000 32.000000 32.000000 32.000000 32.000000 32.000000 32.000000 32.000000 32.000000 32.000000 
dram[3]:       inf       inf      -nan      -nan 10.000000 12.000000 32.000000 32.000000 32.000000 32.000000 32.000000 32.000000 32.000000 32.000000 32.000000 32.000000 
dram[4]:       inf       inf      -nan      -nan 10.000000 12.000000 32.000000 32.000000 32.000000 32.000000 32.000000 32.000000 32.000000 32.000000 32.000000 32.000000 
dram[5]:       inf       inf      -nan      -nan 10.000000 12.000000 32.000000 32.000000 32.000000 32.000000 32.000000 32.000000 32.000000 32.000000 32.000000 32.000000 
average row locality = 2079/79 = 26.316456
number of total memory accesses made:
dram[0]:         0         0         0         0         0         0         0         0         0         0         0         0         0         0         0         0 
dram[1]:         0         0         0         0         0         0         0         0         0         0         0         0         0         0         0         0 
dram[2]:         0         0         0         0         0         0         0         0         0         0         0         0         0         0         0         0 
dram[3]:         0         0         0         0         0         0         0         0         0         0         0         0         0         0         0         0 
dram[4]:         0         0         0         0         0         0         0         0         0         0         0         0         0         0         0         0 
dram[5]:         0         0         0         0         0         0         0         0         0         0         0         0         0         0         0         0 
total accesses: 0
min_bank_accesses = 0!
min_chip_accesses = 0!
number of total read accesses:
dram[0]:         5         2         0         0        10        10        32        32        32        32        32        32        32        32        32        32 
dram[1]:         5         2         0         0        10        10        32        32        32        32        32        32        32        32        32        32 
dram[2]:         3         2         0         0        10        12        32        32        32        32        32        32        32        32        32        32 
dram[3]:         2         2         0         0        10        12        32        32        32        32        32        32        32        32        32        32 
dram[4]:         2         2         0         0        10        12        32        32        32        32        32        32        32        32        32        32 
dram[5]:         2         2         0         0        10        12        32        32        32        32        32        32        32        32        32        32 
total reads: 2079
min_bank_accesses = 0!
chip skew: 347/346 = 1.00
number of total write accesses:
dram[0]:         0         0         0         0         0         0         0         0         0         0         0         0         0         0         0         0 
dram[1]:         0         0         0         0         0         0         0         0         0         0         0         0         0         0         0         0 
dram[2]:         0         0         0         0         0         0         0         0         0         0         0         0         0         0         0         0 
dram[3]:         0         0         0         0         0         0         0         0         0         0         0         0         0         0         0         0 
dram[4]:         0         0         0         0         0         0         0         0         0         0         0         0         0         0         0         0 
dram[5]:         0         0         0         0         0         0         0         0         0         0         0         0         0         0         0         0 
total reads: 0
min_bank_accesses = 0!
min_chip_accesses = 0!
average mf latency per bank:
dram[0]:       2573      4383    none      none        1175      1182      1201      1082      1237      1088       917       923       851       948       843       826
dram[1]:       3024      4350    none      none         984      1247      1078      1268      1052      1256       874       969       859       891       823       822
dram[2]:       3131      4358    none      none        1249      1160      1157      1164      1143      1179       949       890       901       858       836       824
dram[3]:       4520      4351    none      none         997      1150      1005      1227      1017      1140       867       901       888       898       808       820
dram[4]:       4495      4396    none      none         898      1013       915      1004       939       958       834       953       827       911       790       825
dram[5]:       4356      4353    none      none        1054      1072      1099      1095      1024      1050       885       923       899       912       848       833
maximum mf latency per bank:
dram[0]:        278       266         0         0       494       456       465       476       487       511       536       400       398       429       400       426
dram[1]:        289       266         0         0       386       498       469       562       463       505       464       572       382       456       376       362
dram[2]:        269       266         0         0       496       470       509       497       532       526       457       467       408       412       479       425
dram[3]:        269       266         0         0       446       391       498       443       453       512       411       457       397       364       419       371
dram[4]:        266       266         0         0       361       390       374       514       413       397       414       396       393       387       389       424
dram[5]:        266       266         0         0       392       484       453       506       415       460       391       523       371       408       412       404
Memory Partition 0: 
Cache L2_bank_000:
MSHR contents

Cache L2_bank_001:
MSHR contents

In Dram Latency Queue (total = 0): 
DRAM[0]: 16 bks, busW=4 BL=8 CL=12, tRRD=2 tCCD=6, tRCD=12 tRAS=28 tRP=12 tRC=40
n_cmd=372194 n_nop=371480 n_act=17 n_pre=3 n_req=347 n_rd=694 n_write=0 bw_util=0.003729
n_activity=3994 dram_eff=0.3475
bk0: 10a 372087i bk1: 4a 372172i bk2: 0a 372195i bk3: 0a 372196i bk4: 20a 372136i bk5: 20a 372139i bk6: 64a 371997i bk7: 64a 371985i bk8: 64a 372025i bk9: 64a 371996i bk10: 64a 372037i bk11: 64a 372023i bk12: 64a 372026i bk13: 64a 372021i bk14: 64a 372033i bk15: 64a 371999i 
dram_util_bins: 0 0 0 0 0 0 0 0 0 0
dram_eff_bins: 0 0 0 0 0 0 0 0 0 0
mrqq: max=2 avg=0.00033316
Memory Partition 1: 
Cache L2_bank_002:
MSHR contents

Cache L2_bank_003:
MSHR contents

In Dram Latency Queue (total = 0): 
DRAM[1]: 16 bks, busW=4 BL=8 CL=12, tRRD=2 tCCD=6, tRCD=12 tRAS=28 tRP=12 tRC=40
n_cmd=372194 n_nop=371482 n_act=16 n_pre=2 n_req=347 n_rd=694 n_write=0 bw_util=0.003729
n_activity=3736 dram_eff=0.3715
bk0: 10a 372101i bk1: 4a 372171i bk2: 0a 372193i bk3: 0a 372196i bk4: 20a 372131i bk5: 20a 372132i bk6: 64a 372009i bk7: 64a 371977i bk8: 64a 372013i bk9: 64a 371996i bk10: 64a 372028i bk11: 64a 372022i bk12: 64a 372028i bk13: 64a 372041i bk14: 64a 372029i bk15: 64a 372026i 
dram_util_bins: 0 0 0 0 0 0 0 0 0 0
dram_eff_bins: 0 0 0 0 0 0 0 0 0 0
mrqq: max=2 avg=0.000298232
Memory Partition 2: 
Cache L2_bank_004:
MSHR contents

Cache L2_bank_005:
MSHR contents

In Dram Latency Queue (total = 0): 
DRAM[2]: 16 bks, busW=4 BL=8 CL=12, tRRD=2 tCCD=6, tRCD=12 tRAS=28 tRP=12 tRC=40
n_cmd=372194 n_nop=371484 n_act=15 n_pre=1 n_req=347 n_rd=694 n_write=0 bw_util=0.003729
n_activity=3879 dram_eff=0.3578
bk0: 6a 372144i bk1: 4a 372174i bk2: 0a 372195i bk3: 0a 372197i bk4: 20a 372117i bk5: 24a 372099i bk6: 64a 372009i bk7: 64a 371959i bk8: 64a 372015i bk9: 64a 371999i bk10: 64a 372023i bk11: 64a 372019i bk12: 64a 372009i bk13: 64a 372016i bk14: 64a 371997i bk15: 64a 372019i 
dram_util_bins: 0 0 0 0 0 0 0 0 0 0
dram_eff_bins: 0 0 0 0 0 0 0 0 0 0
mrqq: max=2 avg=0.000556162
Memory Partition 3: 
Cache L2_bank_006:
MSHR contents

Cache L2_bank_007:
MSHR contents

In Dram Latency Queue (total = 0): 
DRAM[3]: 16 bks, busW=4 BL=8 CL=12, tRRD=2 tCCD=6, tRCD=12 tRAS=28 tRP=12 tRC=40
n_cmd=372194 n_nop=371488 n_act=14 n_pre=0 n_req=346 n_rd=692 n_write=0 bw_util=0.003718
n_activity=3802 dram_eff=0.364
bk0: 4a 372172i bk1: 4a 372173i bk2: 0a 372193i bk3: 0a 372196i bk4: 20a 372140i bk5: 24a 372122i bk6: 64a 372027i bk7: 64a 371976i bk8: 64a 372017i bk9: 64a 371996i bk10: 64a 372008i bk11: 64a 372034i bk12: 64a 372039i bk13: 64a 372014i bk14: 64a 372045i bk15: 64a 372020i 
dram_util_bins: 0 0 0 0 0 0 0 0 0 0
dram_eff_bins: 0 0 0 0 0 0 0 0 0 0
mrqq: max=2 avg=0.000373461
Memory Partition 4: 
Cache L2_bank_008:
MSHR contents

Cache L2_bank_009:
MSHR contents

In Dram Latency Queue (total = 0): 
DRAM[4]: 16 bks, busW=4 BL=8 CL=12, tRRD=2 tCCD=6, tRCD=12 tRAS=28 tRP=12 tRC=40
n_cmd=372194 n_nop=371488 n_act=14 n_pre=0 n_req=346 n_rd=692 n_write=0 bw_util=0.003718
n_activity=3865 dram_eff=0.3581
bk0: 4a 372174i bk1: 4a 372175i bk2: 0a 372195i bk3: 0a 372196i bk4: 20a 372136i bk5: 24a 372118i bk6: 64a 371985i bk7: 64a 371985i bk8: 64a 372010i bk9: 64a 371974i bk10: 64a 372035i bk11: 64a 372016i bk12: 64a 372024i bk13: 64a 372010i bk14: 64a 372016i bk15: 64a 372004i 
dram_util_bins: 0 0 0 0 0 0 0 0 0 0
dram_eff_bins: 0 0 0 0 0 0 0 0 0 0
mrqq: max=2 avg=0.000381521
Memory Partition 5: 
Cache L2_bank_010:
MSHR contents

Cache L2_bank_011:
MSHR contents

In Dram Latency Queue (total = 0): 
DRAM[5]: 16 bks, busW=4 BL=8 CL=12, tRRD=2 tCCD=6, tRCD=12 tRAS=28 tRP=12 tRC=40
n_cmd=372194 n_nop=371488 n_act=14 n_pre=0 n_req=346 n_rd=692 n_write=0 bw_util=0.003718
n_activity=3648 dram_eff=0.3794
bk0: 4a 372172i bk1: 4a 372173i bk2: 0a 372192i bk3: 0a 372193i bk4: 20a 372138i bk5: 24a 372129i bk6: 64a 371979i bk7: 64a 371952i bk8: 64a 372012i bk9: 64a 372004i bk10: 64a 372014i bk11: 64a 372001i bk12: 64a 372037i bk13: 64a 372028i bk14: 64a 372032i bk15: 64a 372014i 
dram_util_bins: 0 0 0 0 0 0 0 0 0 0
dram_eff_bins: 0 0 0 0 0 0 0 0 0 0
mrqq: max=2 avg=0.000435257

========= L2 cache stats =========
L2_cache_bank[0]: Access = 782, Miss = 175, Miss_rate = 0.224, Pending_hits = 12, Reservation_fails = 342
L2_cache_bank[1]: Access = 737, Miss = 172, Miss_rate = 0.233, Pending_hits = 1, Reservation_fails = 0
L2_cache_bank[2]: Access = 800, Miss = 175, Miss_rate = 0.219, Pending_hits = 14, Reservation_fails = 245
L2_cache_bank[3]: Access = 737, Miss = 172, Miss_rate = 0.233, Pending_hits = 0, Reservation_fails = 0
L2_cache_bank[4]: Access = 752, Miss = 173, Miss_rate = 0.230, Pending_hits = 8, Reservation_fails = 48
L2_cache_bank[5]: Access = 745, Miss = 174, Miss_rate = 0.234, Pending_hits = 0, Reservation_fails = 0
L2_cache_bank[6]: Access = 735, Miss = 172, Miss_rate = 0.234, Pending_hits = 3, Reservation_fails = 16
L2_cache_bank[7]: Access = 748, Miss = 174, Miss_rate = 0.233, Pending_hits = 0, Reservation_fails = 0
L2_cache_bank[8]: Access = 740, Miss = 172, Miss_rate = 0.232, Pending_hits = 4, Reservation_fails = 0
L2_cache_bank[9]: Access = 744, Miss = 174, Miss_rate = 0.234, Pending_hits = 1, Reservation_fails = 0
L2_cache_bank[10]: Access = 740, Miss = 172, Miss_rate = 0.232, Pending_hits = 0, Reservation_fails = 0
L2_cache_bank[11]: Access = 746, Miss = 174, Miss_rate = 0.233, Pending_hits = 0, Reservation_fails = 0
L2_total_cache_accesses = 9006
L2_total_cache_misses = 2079
L2_total_cache_miss_rate = 0.2308
L2_total_cache_pending_hits = 43
L2_total_cache_reservation_fails = 651
L2_total_cache_breakdown:
	L2_cache_stats_breakdown[GLOBAL_ACC_R][HIT] = 2022
	L2_cache_stats_breakdown[GLOBAL_ACC_R][MISS] = 2048
	L2_cache_stats_breakdown[CONST_ACC_R][HIT] = 710
	L2_cache_stats_breakdown[CONST_ACC_R][HIT_RESERVED] = 29
	L2_cache_stats_breakdown[CONST_ACC_R][MISS] = 26
	L2_cache_stats_breakdown[CONST_ACC_R][RESERVATION_FAIL] = 301
	L2_cache_stats_breakdown[GLOBAL_ACC_W][HIT] = 4096
	L2_cache_stats_breakdown[INST_ACC_R][HIT] = 56
	L2_cache_stats_breakdown[INST_ACC_R][HIT_RESERVED] = 14
	L2_cache_stats_breakdown[INST_ACC_R][MISS] = 5
	L2_cache_stats_breakdown[INST_ACC_R][RESERVATION_FAIL] = 350
L2_cache_data_port_util = 0.005
L2_cache_fill_port_util = 0.002

icnt_total_pkts_mem_to_simt=27116
icnt_total_pkts_simt_to_mem=17198
LD_mem_lat_dist  0 0 0 0 0 0 0 0 0 0 0 0 0 0 0 0 0 0 0 0 0 0 0 0 0 0 0
ST_mem_lat_dist  0 0 0 0 0 0 0 0 0 0 0 0 0 0 0 0 0 0 0 0 0 0 0 0 0 0 0
----------------------------Interconnect-DETAILS--------------------------------
Class 0:
Packet latency average = 24.1293
	minimum = 6
	maximum = 246
Network latency average = 17.5516
	minimum = 6
	maximum = 232
Slowest packet = 6695
Flit latency average = 16.1786
	minimum = 6
	maximum = 232
Slowest flit = 15851
Fragmentation average = 0.056962
	minimum = 0
	maximum = 149
Injected packet rate average = 0.00236593
	minimum = 0.00199315 (at node 14)
	maximum = 0.00283722 (at node 17)
Accepted packet rate average = 0.00236593
	minimum = 0.00199315 (at node 14)
	maximum = 0.00283722 (at node 17)
Injected flit rate average = 0.00582077
	minimum = 0.00380897 (at node 14)
	maximum = 0.00872446 (at node 17)
Accepted flit rate average= 0.00582077
	minimum = 0.00501834 (at node 21)
	maximum = 0.00778108 (at node 2)
Injected packet length average = 2.46025
Accepted packet length average = 2.46025
Total in-flight flits = 0 (0 measured)
====== Overall Traffic Statistics ======
====== Traffic class 0 ======
Packet latency average = 24.1293 (1 samples)
	minimum = 6 (1 samples)
	maximum = 246 (1 samples)
Network latency average = 17.5516 (1 samples)
	minimum = 6 (1 samples)
	maximum = 232 (1 samples)
Flit latency average = 16.1786 (1 samples)
	minimum = 6 (1 samples)
	maximum = 232 (1 samples)
Fragmentation average = 0.056962 (1 samples)
	minimum = 0 (1 samples)
	maximum = 149 (1 samples)
Injected packet rate average = 0.00236593 (1 samples)
	minimum = 0.00199315 (1 samples)
	maximum = 0.00283722 (1 samples)
Accepted packet rate average = 0.00236593 (1 samples)
	minimum = 0.00199315 (1 samples)
	maximum = 0.00283722 (1 samples)
Injected flit rate average = 0.00582077 (1 samples)
	minimum = 0.00380897 (1 samples)
	maximum = 0.00872446 (1 samples)
Accepted flit rate average = 0.00582077 (1 samples)
	minimum = 0.00501834 (1 samples)
	maximum = 0.00778108 (1 samples)
Injected packet size average = 2.46025 (1 samples)
Accepted packet size average = 2.46025 (1 samples)
Hops average = 1 (1 samples)
----------------------------END-of-Interconnect-DETAILS-------------------------


gpgpu_simulation_time = 0 days, 0 hrs, 3 min, 2 sec (182 sec)
gpgpu_simulation_rate = 692088 (inst/sec)
gpgpu_simulation_rate = 1549 (cycle/sec)
IO:      0.000000
GPU:     182.348286
Copy:    0.009847
Compute: 0.000051
